%nproc=8
%mem=4000MB
#opt=(noeigen,calcfc,ts,recalc=5,maxcyc=200) freq B3LYP/SVP em=GD3BJ

ts-637.gjf

0 2
C  -5.29826099287886  -0.63528766323588  0.85514211244825
C  -4.66770345831778  0.56745052672139  0.58510079637958
C  -3.31469957685611  0.29505761988553  0.20574827318547
C  -2.77871795600177  -0.75306165504263  -0.57803822474178
C  -3.60117480290419  -1.81644438797733  -0.87768884326760
C  -4.80656037581213  -1.79850582898601  -0.09740944109443
H  -5.14994717219891  1.52203770478978  0.79568818872322
H  -2.51239108331078  0.98825442481421  0.50687092315942
C  2.06678443317357  -1.62301930259982  -1.03795489556770
C  2.06766941672468  -2.04330928899302  -2.44975917118868
C  3.15680545502105  -2.04009818611069  -0.23353679292609
C  3.18873908147139  -2.69825199400810  -2.95391194259821
H  1.26408368088425  -1.98842094792090  -3.16911653886314
C  4.23145820442057  -2.63796094755258  -0.82934030183743
C  4.37840119592029  -2.80759724636514  -2.25376880352574
H  3.36928764012640  -2.95770712782632  -3.96890609246132
H  5.06014121524883  -3.07517709422923  -0.30337724194944
Cl  -7.03537714829712  -0.73431430177795  1.15381421184539
Cl  5.66237844885517  -4.03531696585235  -3.08270771392517
N  -1.42648708490483  -0.94304395419844  -0.51969839435225
H  -1.28522878104508  -1.94590443153455  -0.37382605675486
C  -0.07752794980789  -0.46650673620591  -0.93300178381561
O  0.21120857180620  0.44640768647038  -1.73596688626969
N  0.91882711254722  -1.14064180230060  -0.42597911388372
H  3.24861205830025  -1.88605560442829  0.79740230141407
H  -3.23431471973593  -2.50061507509905  -1.62497595515708
Cl  -4.85080251460339  -2.95475374791018  1.11907445200487

