%nproc=8
%mem=4000MB
#opt=(noeigen,calcfc,ts,recalc=5,maxcyc=200) freq B3LYP/SVP em=GD3BJ

ts-647.gjf

0 2
C  -5.44512355242734  -0.77366442803921  -0.09672319378155
C  -4.92119804911767  0.55401450306005  -0.34222342946632
C  -3.50606559895148  0.72598567917576  -0.22882600596319
C  -2.61816002698660  -0.38166567756316  -0.66104493468071
C  -3.12123693918387  -1.59744634583791  -0.31931297063670
C  -4.42803224937435  -1.74556702795749  -0.13557008779337
H  -5.58284837312206  1.41923111058942  -0.33011485031748
H  -3.15329697604595  1.68143271983534  0.19092825528286
C  2.30656519495856  -1.31973938654457  -0.78142745807599
C  2.62276252915296  -1.25405478194621  -2.12729812411009
C  3.30277868008004  -1.95495106429006  -0.00865457557075
C  3.45581966248102  -2.15234874452924  -2.80251365330555
H  2.12887991635053  -0.55752496122820  -2.79901616767662
C  4.16016945308388  -2.89345099883119  -0.55701179349155
C  4.10222038186077  -3.11983293040952  -1.97846660804984
H  3.85628118557422  -2.19670100271958  -3.81470002478402
H  4.92567107648259  -3.28670819863730  0.11738529708934
Cl  -7.04514585030604  -0.93092271447987  0.74756210866414
Cl  5.21540465153431  -4.30281114292871  -2.22814236875686
N  -1.21590693791507  -0.63550767777983  -0.96432711762727
H  -1.16915111633500  -1.58811595592273  -0.61764025342584
C  0.07054995490384  -0.24206358716648  -1.06313927127617
O  0.38372798305558  0.51426146050917  -1.87234105496737
N  1.14076523309696  -0.88277887142997  -0.30902282868141
H  3.26759957042279  -1.96348002965037  1.11767842947954
H  -2.67887836648011  -2.59281115386107  -0.27600497905672
Cl  -4.84109056454295  -3.34977581761563  0.73869071069823

