%nproc=8
%mem=4000MB
#opt=(noeigen,calcfc,ts,recalc=5,maxcyc=200) freq B3LYP/SVP em=GD3BJ

ts-657.gjf

0 2
C  -4.95994458308742  -0.95351858464628  0.08322593757087
C  -4.51972130425493  0.31513697092920  -0.40231815076510
C  -3.19430195634876  0.31105538955385  -0.72820974901564
C  -2.38206708976749  -0.73581004214504  -0.31296976945527
C  -2.88233059859620  -1.90786432998358  0.25875198477451
C  -4.24436216305017  -2.14248699000674  0.30040347525291
H  -5.07815716568564  1.22248212555790  -0.68130670192135
H  -2.92606918967923  1.04088887454955  -1.44599095778181
C  2.15213724299399  -1.01688781961119  -1.01296270224804
C  3.05001341907013  -1.14364424112554  -2.06629747249739
C  2.61945301561194  -1.78977285052000  0.16948328561734
C  4.15651088224138  -1.93589974254218  -1.92834281264191
H  3.15298814026721  -0.56182006272395  -2.94469498553143
C  3.67005667928020  -2.70684316994298  0.25794165132960
C  4.16714115103354  -3.02223539189590  -1.03282442388962
H  4.83163565869678  -2.20444666944900  -2.71232173064697
H  3.75285962164015  -3.24597447452254  1.18520716418141
Cl  -6.91445607512070  -1.04735110083317  0.00853852428433
Cl  4.65648179868560  -4.49591265021584  -1.81610526566175
N  -0.98618648637226  -0.45415153883653  -0.43392747323420
H  -0.40496674809261  -0.89506361699413  0.27580300169069
C  -0.07651943675595  0.25527993338542  -1.17613465466078
O  0.02100296547993  1.35127143352856  -1.86451084117658
N  1.00739742980318  -0.48609644660218  -1.02557802608701
H  2.07241961699200  -1.55256479352033  1.06300888399141
H  -2.37777091338751  -2.81944917855506  0.60040934563733
Cl  -5.15011369035207  -3.70855104660602  0.08952564888260

