%nproc=8
%mem=4000MB
#opt=(noeigen,calcfc,ts,recalc=5,maxcyc=200) freq B3LYP/SVP em=GD3BJ

ts-322.gjf

0 2
O  -2.80326513000872  -1.72796637184556  -0.29640555716388
H  -2.25628892458003  -2.47447977101751  -0.54022288512455
C  -5.44022895857965  -0.21164289160962  2.45931785905919
C  -4.58228812078590  -1.09877458510934  1.89332494983932
C  -3.45028997636328  -1.57010462606358  2.59051383680729
C  -3.18669847910059  -1.14166847002601  3.89388245198803
C  -4.21494102287420  -0.45753879913194  4.53176990769194
C  -5.34283070025120  0.03387533574217  3.81669300395934
H  -4.75603158595444  -1.33091537655650  0.81983708778694
H  -2.84912363207581  -2.32801553148398  2.11163304129943
C  -0.20466486226155  -1.64901425574401  1.65080934535482
C  -0.13247438544390  -1.17270057385551  0.37933451354680
C  0.54100216254683  -2.80086708248628  2.02032094985793
C  0.62378493356842  -1.84621733317514  -0.58635567819092
H  -0.76913890706359  -0.28098408606171  0.17675957378856
C  1.55018146730744  -3.21761686745962  1.18698909435210
C  1.57042392179594  -2.73726947016685  -0.14893404034927
H  0.48953144226764  -1.54680377073760  -1.61433819996350
H  2.26062016381447  -3.94182965238783  1.48303138302961
Cl  -6.60893515403781  0.44130253112659  1.47460697985263
Cl  3.04394091188920  -3.35318780622496  -1.02262006564814
N  -1.95944398506841  -1.49242674003780  4.55468921985653
H  -1.94475311524479  -2.10323731464411  5.36693919435274
C  -0.76316016279220  -1.30921699790875  3.90188623497441
O  0.34807199024311  -1.71958751464981  4.25358547619352
N  -0.87021152271471  -0.86021975596345  2.55246990434294
H  -1.76143198899442  -0.34402953499576  2.32594819418948
H  0.40072128620215  -3.37214575385204  2.91896431168897
H  -4.20733039186074  -0.25742835228749  5.64876963757923
Cl  -6.66027959598748  1.05530119551484  4.56516468361790

