%nproc=8
%mem=4000MB
#opt=(noeigen,calcfc,ts,recalc=5,maxcyc=200) freq B3LYP/SVP em=GD3BJ

ts-352.gjf

0 2
O  -2.29338798205138  -2.61151267309206  -0.02765108917338
H  -1.52672556384005  -2.74232331539999  -0.59021501725987
C  -6.10190903768286  0.17131579428782  2.84597326502293
C  -5.21991444544218  -0.04177418911928  1.78813890650273
C  -3.93752459706095  -0.43797809768906  2.01708314787705
C  -3.45393856422356  -0.61908778914775  3.29626492087636
C  -4.31561089100587  -0.08268451996821  4.35269929964542
C  -5.64571450741068  0.20714883378752  4.18603323091254
H  -5.64309089597307  0.22078174832548  0.80851916724459
H  -3.38484133706979  -0.74839692124565  1.13888641553491
C  0.28586026664786  -1.76256226846982  1.12227932549165
C  0.96306012064206  -0.84012737634959  0.28407212433727
C  0.60360432882648  -3.13826381318239  1.16029537946752
C  1.97071419750624  -1.32025661446846  -0.55699111829774
H  0.69822959735044  0.24493180577412  0.22688367738567
C  1.63168212515675  -3.64694261734480  0.36471041683631
C  2.21288053219157  -2.71354811366490  -0.56087071394998
H  2.55698493242347  -0.79075557815646  -1.28296387683129
H  1.93161309393515  -4.67212940806990  0.40116029249312
Cl  -7.61204504406439  1.08395883851238  2.48020365085381
Cl  2.86564209358948  -3.40057818633613  -2.00586080036444
N  -2.20096029491604  -0.86940186302593  3.66883980659421
H  -1.88431039478561  -0.75864666795133  4.62908508569564
C  -0.95954147091394  -1.04227488510792  2.98083917942732
O  0.00215247807501  -0.75091712664933  3.71365040014375
N  -0.98056134672692  -1.59903468937438  1.77770221589876
H  -1.77056917452808  -2.03498406428551  0.87908984355522
H  -0.04142711983794  -3.79168952738806  1.73665655546901
H  -3.99345239272711  -0.07860253971817  5.44256458957857
Cl  -6.71329989013357  0.61211497915588  5.61787741260124

