%nproc=8
%mem=4000MB
#opt=(noeigen,calcfc,ts,recalc=5,maxcyc=200) freq B3LYP/SVP em=GD3BJ

ts-362.gjf

0 2
O  -2.29784593878158  -2.96210237442979  -0.17329034739832
H  -2.90053577758607  -2.60916009570569  -0.85902802567475
C  -6.16144556811793  0.79769759632162  3.06781636992326
C  -5.41780714749715  0.48687694519526  1.93839803342367
C  -4.12267774291960  -0.09811434285598  2.02066266877763
C  -3.50425060704302  -0.35685773546354  3.23318724243429
C  -4.27700746758883  -0.17018159031573  4.42312911550885
C  -5.54563645017796  0.41981582017942  4.28250568872524
H  -5.86455768477719  0.52750122776616  0.93968263014360
H  -3.61736875465827  -0.41112868759201  1.11843984456645
C  0.40718497477449  -1.91447390516946  1.05986623343894
C  1.34483869839531  -1.05408255618725  0.50153442283042
C  0.80383440050719  -3.25459997298295  1.12382667951586
C  2.33973142719580  -1.41853628735481  -0.34780646475948
H  1.33282433872047  -0.08694406551940  0.93397515632856
C  1.67217431672305  -3.61710776465440  0.10870051995212
C  2.26578811182471  -2.70222855159491  -0.79978225919232
H  3.01578547785896  -0.72950232210718  -0.79107746007318
H  1.86065413907398  -4.66396273250721  -0.06249161016194
Cl  -7.84095223472399  1.03649505482359  2.86521238817127
Cl  3.06349769889534  -3.31643929291643  -2.21166316738754
N  -2.20370185217749  -0.56390231367890  3.39881413977757
H  -1.85921798881902  -0.74093244188808  4.34133772118977
C  -0.99738881700134  -0.76567640839951  2.67525807896217
O  -0.02006889322118  -0.61954587670228  3.52995956471865
N  -0.77443632299984  -1.33161824872751  1.53128466838293
H  -2.19864393938329  -3.80938845566748  -0.25455138284906
H  0.35914092729215  -3.97457340097003  1.75898030806600
H  -4.07305709945799  -0.50420409237567  5.39851177275957
Cl  -6.63421550278873  0.58707282029130  5.57408998811696

