%nproc=8
%mem=4000MB
#opt=(noeigen,calcfc,ts,recalc=5,maxcyc=200) freq B3LYP/SVP em=GD3BJ

ts-372.gjf

0 2
O  -2.61023422574941  -3.51372760296422  -0.56186493455703
H  -2.01864053005269  -3.46012447892198  0.19848913470815
C  -6.22905753178997  0.64341280841988  2.91525734437290
C  -5.43444879757284  0.66337432842209  1.76219994116796
C  -4.03919105763984  0.43658172347664  1.79987893013358
C  -3.33260481562556  0.10930361280595  3.01641171365065
C  -4.21276838554671  0.14824348054670  4.07640490965043
C  -5.59302619014184  0.28887325043584  4.12823299538748
H  -5.77425948076913  0.83421058287203  0.78781001383163
H  -3.46911325222231  0.55737688679880  0.88540087910175
C  0.37655096445719  -1.84866762238627  1.03054827923351
C  1.34267449171885  -1.03359300969657  0.38436968451703
C  0.38595884938294  -3.17481184959498  0.50244952588118
C  2.27793208403811  -1.48965850013657  -0.52337480850259
H  1.14637777891399  0.00145331189026  0.51929546170300
C  1.45331488637953  -3.68325158325755  -0.19715233060737
C  2.43431882154979  -2.83791166628660  -0.72722469690542
H  2.93798899941518  -0.78357410602816  -1.04149526506168
H  1.35233615108845  -4.71651465392721  -0.55569717199577
Cl  -7.83040349508094  1.13938627832928  3.14400806225896
Cl  3.37430044524445  -3.27060170298316  -2.05662861185868
N  -2.11147200480134  -0.44387319015059  3.39996512363851
H  -2.03384707140028  -0.68131329221519  4.39116640665149
C  -0.77214717747778  -0.68636926499264  2.94883073459979
O  0.17778126565222  -0.43413420896449  3.68845608929073
N  -0.53814895511826  -1.49308352851677  1.87162984984544
H  -2.68247828876528  -2.71816562847363  -0.94067215565180
H  -0.41172607240227  -3.91902779284340  0.72253745158751
H  -3.74899036726217  0.09559515859983  5.05526170131603
Cl  -6.36224269037401  0.52635755716433  5.69866137424044

