70
 energy: -143.120147556547 gnorm: 0.102669470915 xtb: 6.6.1 (8d0f1dd)
O     3.42064195    -3.14418185    -2.53481662
H     3.98775224    -3.31332954    -3.28921240
H     2.71674691    -2.51247469    -2.69234918
O    -1.67436861     0.71064427    -4.98896012
H    -1.23647390     0.54189434    -5.82508839
H    -1.04072394     1.15896750    -4.42607577
O    -1.79688845     3.60432410     3.55223448
H    -2.42511513     2.90881887     3.34989235
H    -1.64480454     3.42673205     4.48211077
O     0.21450463     1.79717545     5.08705949
H     0.76344575     1.85150843     5.87131108
H     0.78300930     2.18250903     4.41798631
O    -2.58743513    -0.86360115    -2.74321416
H    -1.67476249    -0.64415004    -2.54774283
H    -2.98686870    -0.01330241    -2.93500310
O    -0.73929395    -2.15463068    -4.30853832
H    -1.43509853    -2.51361245    -3.75507102
H    -1.20553929    -1.39216523    -4.65581511
O     0.13466931    -3.43002399    -1.66326162
H     0.84853090    -4.03962218    -1.46799484
H    -0.42677751    -3.81186622    -2.34024949
O    -0.86279830    -2.75140419     0.99287887
H    -1.82137554    -2.73079919     0.99945876
H    -0.61113220    -3.03400068     0.11189084
O     0.63286302     1.33834309    -3.64081294
H     0.55139555     1.11412394    -2.71214324
H     1.51407744     1.01637698    -3.83864310
O     1.40451163    -0.90351997    -2.42805770
H     0.98791110    -0.69437933    -1.59017792
H     0.91762104    -1.48278181    -3.01689687
O    -3.30076001     2.84392412    -5.55489398
Cl    -4.29324670     3.19610715    -4.21620078
H    -2.70005911     2.19236134    -5.17382866
O     0.57571164     2.95539919     2.20916002
Cl     1.06251333     3.46230838     0.65763437
H    -0.34845124     3.21520437     2.30408808
O    -1.16558609    -0.58531386     4.47204462
Cl    -2.27509042    -1.39553102     5.47887734
H    -0.82019627     0.23841255     4.83641641
O     3.65068622     1.96970868     3.84346746
Cl     3.33269811     2.64185126     5.37587365
H     3.41204695     2.57551867     3.13168545
C     5.09684070    -0.50097634     0.06927258
C     4.72269017    -1.38648661     1.07256984
C     3.40453333    -1.42587964     1.48560691
C     2.47618226    -0.48924285     1.01895219
C     2.91344933     0.47378461     0.10995767
C     4.19092973     0.42696359    -0.43616782
H     5.44608170    -2.13570927     1.36617668
H     3.12886001    -2.20339852     2.18949901
C    -2.07438555     1.07741647     1.42281076
C    -2.21416957     1.72302490     0.19174308
C    -3.15513071     1.07366680     2.30928297
C    -3.40189298     2.36989641    -0.12533713
H    -1.46851202     1.76112612    -0.58601596
C    -4.27566128     1.84216561     2.03931421
C    -4.39001865     2.52060160     0.83485188
H    -3.57574383     2.68887608    -1.14482870
H    -5.15711833     1.93140184     2.66049165
Cl     6.67129472    -0.46930989    -0.65550340
Cl    -5.69310933     3.65811314     0.60981394
N     1.17713191    -0.57647519     1.54277817
H     1.07701059    -0.99832732     2.45259750
C     0.10455796     0.08876940     0.97019723
O     0.13502422     0.30448598    -0.21798308
N    -0.92207252     0.38759462     1.84483243
H    -0.96577612    -0.10860535     2.72103082
H    -3.12338364     0.50785879     3.23463558
H     2.17950364     1.19390368    -0.21364267
Cl     4.63722687     1.55125941    -1.67799187
