%nproc=8
%mem=4000MB
#opt=(noeigen,calcfc,ts,recalc=5,maxcyc=200) freq B3LYP/SVP em=GD3BJ

ts-4523.gjf

0 1
O  3.26851551809900  -2.79888996614778  -3.69329430278818
Cl  -1.19207596406137  -3.55879482712291  -3.40625346496012
H  3.76734650900823  -2.69580263872560  -4.52027099630600
Cl  -0.22744884113236  -0.28138855372926  1.61698078912397
C  -4.15049220846345  1.91143752868497  -1.65296768769131
C  -2.90615461303634  2.38041963624698  -0.97830563123898
C  -1.90084662447555  1.46195617252646  -0.68704367158320
C  -1.90744616040972  0.07853810949011  -1.05928994575395
C  -3.10765752185397  -0.35144956151794  -1.78579747948293
C  -4.11535025567964  0.61972080450613  -2.18170428469999
H  -2.76628263104256  3.43799651893045  -0.81081663636054
H  -1.01976786052464  1.82965740309736  -0.19789393434150
C  1.86443473409982  -2.79256710163692  -0.78721066371452
C  3.40556787593950  -3.82746860085309  -2.83063112541027
C  1.63368273356850  -3.30504951544617  0.47541151829952
C  2.52141438851514  -3.80146089415945  -1.64185338624673
C  1.72243360325776  -4.77904907993825  0.45640023798245
C  2.35051477274630  -5.00142168723345  -0.84123304906074
H  1.14540052444477  -5.48564361299733  1.03198538569850
Cl  -5.19676297814500  3.22897273598275  -2.02644670630187
Cl  2.92997728566893  -6.48526167530525  -1.27253966076600
N  -0.93136593327653  -0.75913157402436  -0.94681713539975
C  0.26037796565358  -0.86506067315202  -0.92601653673053
O  4.38270026260692  -4.59026605200082  -3.01392682301791
N  1.37013403614949  -1.48488145062104  -1.06322738525903
H  1.58981355238938  -1.06723085354186  -1.95339270956147
H  1.14553358613373  -2.65692643939699  1.18224666604373
H  -3.23152977449801  -1.33518817106555  -2.21693698690620
Cl  -5.33246868029261  -0.08538571340963  -3.08351931932997

