%nproc=8
%mem=4000MB
#opt=(noeigen,calcfc,ts,recalc=5,maxcyc=200) freq B3LYP/SVP em=GD3BJ

ts-4533.gjf

0 1
O  3.00877540634484  -2.38283058464583  -3.13969690834862
Cl  -1.18791268908522  -3.91177842320755  -3.06897380205293
H  3.60311243625232  -2.34007640121666  -3.92150199442706
Cl  -0.05038168876915  -0.57520552115228  1.82333966854705
C  -3.95104359891241  1.99592370416438  -1.51561926398615
C  -2.80250924491644  2.49417166091055  -0.94795022285770
C  -1.76466082164394  1.70435103650112  -0.63409167974493
C  -1.78328601198012  0.42113058096882  -1.03344588681018
C  -2.93533296527990  -0.11453756718250  -1.61570825954365
C  -3.92203670581570  0.74396030539268  -2.04145167345578
H  -2.68295569317356  3.59749349565077  -0.88562868777871
H  -0.86052647251432  2.19905234916040  -0.24421855175399
C  1.35387192999050  -3.01818607590209  -0.66423833509394
C  3.25477532959622  -3.49386064518346  -2.34351066916586
C  0.54710171334126  -3.86403157132481  0.12016208652560
C  2.43137869792048  -3.76107375602494  -1.22679474493551
C  1.00425842112440  -5.17366856631137  0.06366878873991
C  2.26571043819931  -5.04939783893474  -0.67991864129254
H  0.39383572748721  -6.04522332227610  0.29924325919466
Cl  -5.04470748594854  3.23093567745640  -1.90988211248107
Cl  3.36100543943198  -6.33840825600144  -1.37206515837373
N  -0.76383013299990  -0.35678628865283  -1.28422644945953
C  0.08929617185037  -0.97283222661368  -0.60198501250528
O  4.08928659389096  -4.25824000486381  -2.63639690331701
N  1.22004445792881  -1.62983320820192  -0.89183983957431
H  1.98941962368080  -1.20380405085505  -1.52389472356364
H  -0.37905235047774  -3.62907533635760  0.61433862267779
H  -2.86177524010529  -1.12140702255795  -2.00906187387273
Cl  -5.19184095975925  0.25787051648354  -3.19114639873938

