%nproc=8
%mem=4000MB
#opt=(noeigen,calcfc,ts,recalc=5,maxcyc=200) freq B3LYP/SVP em=GD3BJ

ts-4828.gjf

1 1
O  0.54716223897306  -3.33614607168174  -0.33067990261705
H  1.00585136450634  -4.13322861770554  -0.74642617073729
Cl  -2.62555810623078  -2.40640168505815  1.52683955158918
C  2.45380031823037  -3.37714884468275  4.70308042396949
C  3.16870143495103  -2.92074990840691  3.63714903592953
C  2.67733325796755  -1.97618142331756  2.65606240564531
C  1.42174053292926  -1.41690205364382  2.99407018191072
C  0.75453618437874  -1.88772206380433  4.15298480790833
C  1.10548819468378  -2.96036339198955  4.84071147517735
H  4.10429893485367  -3.40360003217741  3.39582296035532
H  3.19940821448399  -1.89102549610376  1.71999181471620
C  0.58105961767982  0.13375599867261  -1.35816091893033
C  1.47257237016559  -0.51564270558538  -2.36385896240434
C  0.64787685770956  -0.17222860163446  1.15566445899015
C  1.71345873499985  -1.87018504037151  -1.88256161283008
H  1.78829611140545  -0.18512835379943  -3.28753063284883
C  0.46516414493074  -0.73217146328200  -0.16639760137400
C  0.87799447280951  -2.05576502152669  -0.66293143718693
H  2.52578818054023  -2.57537311508679  -1.95163451758939
H  -3.22431587783128  -2.96615946326287  2.54508772826181
Cl  2.88483770051626  -4.47670592051390  6.03334498839035
N  0.72354815229195  -0.55989329082415  2.34661242979972
C  0.44609938223120  2.43388883447992  -1.76822376661701
O  0.76119654973657  3.49562664537135  -2.19146028787193
N  0.31156678961653  1.43021377890069  -1.05173746455086
H  0.76653718939529  1.00372686644928  0.89963180248407
H  -0.21968754719597  -1.50906328182289  4.37818823954219
Cl  -0.01882910607291  -4.27566991961020  5.23941744662243

