%nproc=8
%mem=4000MB
#opt=(noeigen,calcfc,ts,recalc=5,maxcyc=200) freq B3LYP/SVP em=GD3BJ

ts-4838.gjf

1 1
O  0.84891276208747  -2.78373219232932  -0.16986862190407
H  1.03223732593442  -3.71093242897614  -0.52480895709541
Cl  -3.14841560507800  -3.26072342298035  2.22417324419346
C  2.12361696641818  -3.64447142913640  4.73931924068344
C  2.88527320862438  -3.09700052235280  3.75372372418418
C  2.56705296320451  -2.06357501078405  2.84266675206501
C  1.32380381193384  -1.46330679544654  3.21217897065665
C  0.35014213297124  -2.14114777025809  4.01484731188721
C  0.75765706303633  -3.25386650043232  4.73897381434548
H  3.86439729668907  -3.57865150141941  3.73053988574419
H  3.38748348132965  -1.61728186838066  2.28756306921286
C  1.57075393009516  0.51319973994033  -1.06954115389481
C  1.83676464204940  -0.11730527696020  -2.31161228461641
C  0.99891344136468  0.01500191600462  1.36538351600953
C  1.58075505034580  -1.50047002614529  -2.12782194499040
H  2.31533299978009  0.21379231009598  -3.21380834278871
C  1.29263924524883  -0.36708269099867  -0.09005793549312
C  1.28264056879881  -1.67969856228463  -0.79814574597597
H  1.56575109924566  -2.27051244370890  -2.92058175963089
H  -2.47792028468761  -2.26033228015695  1.73573500089753
Cl  3.25839895672646  -4.49338194498327  5.79632904501449
N  0.84558709521726  -0.34552249371761  2.61531849437364
C  1.42119357511066  2.77721249666410  -1.97028853325234
O  1.21660701083024  3.65481140853504  -2.69389477020420
N  1.56892246706679  1.92799479110476  -1.10293086034518
H  0.75044145893606  1.05192190967407  1.24442460298460
H  -0.62812710710843  -1.72658938587430  3.88900813327410
Cl  -0.14417687024673  -3.97763438047880  5.95275440043207

