%nproc=8
%mem=4000MB
#opt=(noeigen,calcfc,ts,recalc=5,maxcyc=200) freq B3LYP/SVP em=GD3BJ

ts-4848.gjf

1 1
O  1.32945952522767  -2.28758121889926  0.34355127637654
H  1.05441463137715  -3.02919365499029  -0.18577658498201
Cl  -3.59651509207379  -3.97763902421199  2.83681940160730
C  2.19313088195793  -3.54352713320755  4.59449337820059
C  3.00589362810806  -2.85940433789890  3.51689274450012
C  2.39235007937713  -1.92070540070981  2.76938019087604
C  0.95372070790634  -1.67664806021755  2.86617499680263
C  0.26658876823037  -2.46117780680935  3.77126066913650
C  0.83840815473996  -3.23996877701997  4.82810242371373
H  4.02638828010632  -3.06653092126787  3.73764924478076
H  2.93075470212088  -1.16736185558524  2.19768100204995
C  2.09006480311597  0.74473029811922  -1.29992216415937
C  1.99729256717961  -0.18178154268130  -2.31203590721828
C  1.13856415101326  0.02424083236699  1.31611332529260
C  1.64006965047082  -1.48078158137864  -1.83757621070648
H  2.28659807288524  0.04633894676681  -3.38612435268734
C  1.65227988390438  0.10155789990993  -0.07359927750280
C  1.62789483468418  -1.30880903080531  -0.49872389267333
H  1.12763227807423  -2.04706342947498  -2.59343165594372
H  -4.51720611872505  -5.27283461750030  2.87612396008514
Cl  3.10013236387353  -4.67649737280895  5.63302099638619
N  0.55927989608260  -1.11058977382202  1.74837084211590
C  2.02097667752005  3.12038636835946  -2.42044130582169
O  1.81767581078015  4.05946395902061  -3.07106698714203
N  2.24768208567449  2.11286496845112  -1.74138392752777
H  1.17950342504643  0.84803989608894  2.07654005022698
H  -0.80183787508694  -2.19898036756987  3.60383703635878
Cl  -0.10830787411580  -3.49480048596949  6.40515409994365

