%nproc=8
%mem=4000MB
#opt=(noeigen,calcfc,ts,recalc=5,maxcyc=200) freq B3LYP/SVP em=GD3BJ

ts-778.gjf

0 2
O  0.76680628220860  3.19548575166439  1.99326389278350
H  0.31572827676386  4.00387691340939  2.16533332344606
C  1.40136409940953  0.50536007699909  1.05873119294482
C  1.81604719197571  -0.75163039270918  0.69694445169110
C  1.53837324940196  0.91668445457514  2.38032229916230
C  2.13598602111983  -1.70103687511927  1.71546750904456
H  1.86267184474623  -0.92642617792439  -0.39082419650559
C  1.60086455189144  0.02351897062437  3.43454502355154
C  1.83098707051184  -1.23440159390888  3.01284918386495
H  2.52424609571660  -2.70909440704743  1.53488393587922
H  1.60092442892241  0.26875655721857  4.48449469842120
Cl  1.18520657336187  -2.36116179343451  4.16828997224239
C  0.16019893538721  2.36403314311838  0.46297535730660
O  -0.64820965943505  3.03387257316363  -0.02847178260712
N  0.78687064755961  1.29192708027996  0.08347908217602
H  1.45742026395158  1.91371838302668  2.82925245542423

