%nproc=8
%mem=4000MB
#opt=(noeigen,calcfc,ts,recalc=5,maxcyc=200) freq B3LYP/SVP em=GD3BJ

ts-788.gjf

0 2
O  0.71721106363262  4.05114698808689  1.18354252473149
H  0.45140285822279  4.76013843290048  0.63193531299538
C  1.32088980183628  0.91054020742873  1.44324677054246
C  1.84774703474228  -0.32571092452441  1.01835479459375
C  1.46295166228519  1.10624414958042  2.85951440832321
C  1.99193911988733  -1.40855653917947  1.87843985795788
H  2.07392013659554  -0.41763124300073  -0.05214162589591
C  1.82565309678640  0.03745996305056  3.66867758980487
C  1.84925319951687  -1.28214333830413  3.25064916772701
H  2.04518405317307  -2.38501039862203  1.41146312741957
H  1.74438082364956  0.22295400176446  4.73984766321768
Cl  1.54399458627398  -2.64543978645143  4.43972212258810
C  0.17833345039458  2.84350758013076  0.35128839493626
O  -0.60794769347298  3.16204538721748  -0.54606264204032
N  0.68986414935568  1.65114910966121  0.47138654868393
H  1.52729739054353  2.08948608534855  3.26722322817436

