%nproc=8
%mem=4000MB
#opt=(noeigen,calcfc,ts,recalc=5,maxcyc=200) freq B3LYP/SVP em=GD3BJ

ts-798.gjf

0 2
O  0.84069990685489  4.31540407837800  0.48465936540065
H  0.29476932215395  4.86379551564524  -0.16996787033730
C  1.24978326371408  1.23493045518047  1.84852362470958
C  1.65894299922204  -0.03283322176390  1.30610127896347
C  1.21748998393593  1.24800272033815  3.30223776471427
C  1.98614080157870  -1.08835326664876  2.04772144506224
H  1.52330827256638  -0.23052797444529  0.26992923864877
C  1.36308086691663  0.10966723403920  4.07402650362800
C  1.91361583959074  -1.05267083511777  3.46421694507722
H  2.24173477846859  -1.97439760633043  1.49934757108778
H  1.21869468215117  0.23888225992668  5.12929259717367
Cl  2.19372828739680  -2.47731658397879  4.24217008609669
C  0.56623953859083  3.13896952526192  0.24096136243648
O  -0.23405412156076  2.87749939097024  -0.72569936640813
N  1.00526627380036  2.25962950560533  1.12434555824683
H  0.93101049595005  2.24148542067133  3.59948194819821

