70
 energy: -143.077632574395 gnorm: 0.089676844234 xtb: 6.6.1 (8d0f1dd)
O    -0.84941855    -4.34338481    -3.86261420
H    -1.67961241    -4.69532507    -4.18858080
H    -0.69897530    -3.50088641    -4.29493578
O     0.82614421     0.82829802    -2.50711795
H     1.71315014     0.57505064    -2.24553615
H     0.41250075     1.24853833    -1.75105232
O     0.29632729     3.45686596     5.61368395
H    -0.18157017     3.47853543     4.78273084
H     0.13963188     4.34872488     5.92891812
O    -0.57005880     0.16560622     3.85777948
H    -0.41187952     0.79985096     4.55924359
H    -0.69978322    -0.71259371     4.22009830
O    -4.21569619    -2.36585462    -0.39812957
H    -4.77491382    -2.79945985    -1.04512364
H    -3.52377491    -3.02238554    -0.30040443
O    -0.28956117    -1.22898037    -3.70422787
H     0.10377882    -0.96381455    -4.53747977
H     0.00892037    -0.49083639    -3.17000724
O     0.06035324    -6.68878677    -0.66458009
H     0.96851982    -6.55382774    -0.38825244
H     0.02078450    -6.47668240    -1.59880952
O     0.11591599    -1.98275264    -0.68486442
H     0.26679260    -1.14254143    -1.12146440
H    -0.48066485    -2.50975075    -1.21937431
O     0.80255160     4.70567307    -2.81126226
H     0.90171152     4.37098836    -3.70428637
H     1.52049440     5.33274755    -2.70794939
O     2.15522340    -2.40499506    -2.37727153
H     2.15946725    -2.65574793    -1.45182930
H     1.29637732    -2.74429207    -2.63533984
O    -3.18693605    -0.15435207    -1.43830726
Cl    -4.38930192     0.47956651    -2.46477000
H    -3.47826725    -0.96559676    -1.00518535
O    -1.01968083     4.58395603     1.79522910
Cl     0.40601543     4.39764959     2.70838011
H    -0.73179175     4.68828647     0.88044927
O    -2.76940370    -0.87060804     3.01892290
Cl    -1.84853318    -2.17164539     2.41853709
H    -3.51385584    -0.79637372     2.40993489
O     3.58616086     3.53742912     3.04767915
Cl     5.03281786     2.96724130     3.74282676
H     3.67381262     3.88800284     2.15325011
C     5.04972387    -0.39086937     0.27358652
C     4.35828063    -1.09343821     1.25288524
C     3.14965978    -0.62263268     1.72961035
C     2.59369055     0.56782680     1.24940676
C     3.26700207     1.26518915     0.24679364
C     4.48929064     0.78722244    -0.21142050
H     4.72849407    -2.01862265     1.67456134
H     2.58654706    -1.21635522     2.44122344
C    -2.18639144     1.78879731     0.79660811
C    -2.25852778     2.39158064    -0.46169479
C    -3.32661125     1.91086988     1.59589174
C    -3.41270366     3.02408248    -0.90609220
H    -1.44348132     2.37618721    -1.16726432
C    -4.47850146     2.55418715     1.17357169
C    -4.52024771     3.14359777    -0.08139243
H    -3.39025021     3.43105104    -1.90869265
H    -5.28304092     2.55056487     1.89710069
Cl     6.50975452    -1.08158656    -0.35603951
Cl    -5.97883315     3.89599852    -0.67218983
N     1.25769866     0.77222656     1.62740359
H     0.98230277     0.30312346     2.47584581
C     0.24674624     1.38946258     0.90781394
O     0.40989190     1.99607875    -0.12399745
N    -1.04623332     1.16746079     1.34044850
H    -1.28405217     0.76366924     2.23277282
H    -3.34002026     1.45941684     2.58251955
H     2.91459728     2.16822659    -0.22469263
Cl     5.20011660     1.41895926    -1.66089781
