70
 energy: -143.150688039136 gnorm: 0.106330954227 xtb: 6.6.1 (8d0f1dd)
O    -0.79429359     0.58951341     0.38930267
H    -0.53041168     0.33028974    -0.49529185
H    -1.71231799     0.85140590     0.29995951
O    -3.82010566    -0.57973521    -2.86554026
H    -3.89415507    -1.26702325    -3.52998788
H    -3.02954753    -0.07395736    -3.06186827
O     0.70372741     0.00300239     2.62034096
H     1.40292302    -0.54585495     2.26086949
H     0.17836394     0.25329636     1.85831438
O    -3.50457974     0.49282033    -0.37859262
H    -4.39222488     0.76984497    -0.14474983
H    -3.48901366     0.41450633    -1.33408363
O    -0.90325654    -1.20157455    -4.00235534
H    -0.69893725    -0.62763258    -3.26196123
H    -0.93728674    -0.71557463    -4.82817864
O     1.34416884    -3.40531720    -2.28111239
H     0.96472041    -2.92492634    -3.01907004
H     0.56289104    -3.81507711    -1.90555777
O    -1.19228074    -3.56855668    -1.18471393
H    -1.23503079    -2.65077796    -0.91050219
H    -1.50545138    -4.18817442    -0.52339963
O    -2.02766411    -1.74007796     0.37351813
H    -1.53488748    -1.36760754     1.10684968
H    -2.73587818    -1.15264156     0.10391135
O     0.41244284    -0.53184858    -1.52801977
H     1.10626225    -0.08871882    -1.03650249
H     0.51495969    -1.47264049    -1.37394610
O    -3.67154466    -3.42141491    -2.61042939
H    -3.40951850    -2.79356559    -1.93479202
H    -2.94119883    -3.94896756    -2.93848649
O    -0.97008672     1.92810790    -2.06492001
Cl    -1.15848202     2.52468528    -3.64914375
H    -0.21777221     2.44639888    -1.75510756
O     2.13250037     3.15418308     4.30654194
Cl     3.22854936     2.59791335     5.48569640
H     1.27261896     2.74997615     4.47329871
O     1.94632937    -2.28128898     0.29864261
Cl     1.38588939    -3.53270530     1.30910194
H     1.87779632    -2.73877103    -0.54787941
O    -0.11859242     1.79857025     4.28876460
Cl    -1.54656157     1.16269691     4.96532208
H     0.25036238     1.02548908     3.84513644
C     4.70075574     0.00864838     0.13433166
C     4.71084908     0.50880119     1.43066023
C     3.97534524     1.63511013     1.74712690
C     2.94353553     2.10189684     0.92592675
C     2.87448534     1.52550101    -0.34210138
C     3.76796370     0.54193452    -0.75038417
H     5.41830374     0.07613847     2.12574710
H     4.07499393     2.05944985     2.74010294
C    -1.50782635     3.70173852     1.21045237
C    -1.83253584     4.34503694     0.01353624
C    -2.45900108     3.08561819     2.02869401
C    -3.15736288     4.26868228    -0.39716161
H    -1.10799761     4.83227039    -0.61893025
C    -3.78190448     3.03451895     1.62079980
C    -4.06028717     3.53719854     0.35830280
H    -3.48776727     4.75488110    -1.30588532
H    -4.52047219     2.49622492     2.20006507
Cl     5.81257396    -1.21243879    -0.39293945
Cl    -5.64055200     3.44766979    -0.37475071
N     2.04725646     3.05172423     1.43978148
H     2.02590791     3.08876679     2.44672080
C     0.87763925     3.36815105     0.76696371
O     0.83074947     3.43064262    -0.43849487
N    -0.16826981     3.61584062     1.63470644
H    -0.06705208     3.34911219     2.60138059
H    -2.13653650     2.69122863     2.98676366
H     2.18626970     1.90083159    -1.08200077
Cl     3.44077838    -0.23982494    -2.26271718
