%nproc=8
%mem=4000MB
#opt=(noeigen,calcfc,ts,recalc=5,maxcyc=200) freq B3LYP/SVP em=GD3BJ

ts-2278.gjf

0 2
Cl  1.52060403600234  -2.58945242900522  -0.58733157508624
C  -1.86726600495036  -2.66577506869591  -1.17198208283910
C  -2.31619126005265  -3.33180272230052  0.00256914563936
C  -1.66068651325965  -3.18581578400735  1.12843702032153
C  -0.65871612947326  -2.11130318430528  1.37252763105262
C  -0.07042361402918  -1.55265236149264  0.13750174449041
C  -0.78963878585219  -1.80632110077721  -1.08219316925705
H  -3.20970700793670  -4.01218197447981  -0.03611764191869
H  -1.76404780069576  -3.74712786148993  2.06135629653737
C  -2.82274722762783  0.59261981278732  3.01814808396115
C  -2.66528965906643  0.63141128775250  1.62684275220064
C  -3.55621340743374  1.78168280557322  3.71526408627717
C  -3.06440097179645  1.65389301243062  0.71622852974202
H  -1.97854249870870  -0.17822803295156  1.46021710035808
C  -4.35721277350813  2.42189599194764  2.73858274614362
C  -4.04386161767660  2.41662367669141  1.27673431366958
H  -2.77144836703187  1.69084975930692  -0.31846041830921
H  -5.06927215423942  3.19450269548823  2.91549009719703
Cl  -2.74913345980690  -2.77194312015280  -2.64372938247166
Cl  -4.88518857253800  3.32074887364643  0.23992788253055
N  -0.96664773398233  -1.43966839523456  2.37487746325237
C  -0.96025757034368  -0.92224051371015  3.65528586407529
O  -0.28814999150396  -1.30846803425684  4.58620421287714
N  -2.00140460841537  -0.03289721617684  3.95414382680231
H  -3.61298147389388  1.79311060120905  4.85291113056880
H  0.44309153462017  -0.62334955163616  0.18923997822074
Cl  -0.26413546259873  -0.66320182890568  -2.37438306841243

