%nproc=8
%mem=4000MB
#opt=(noeigen,calcfc,ts,recalc=5,maxcyc=200) freq B3LYP/SVP em=GD3BJ

ts-2308.gjf

0 2
Cl  1.96007460260880  -1.79494679989622  0.23546052795624
C  -1.76955829023851  -2.03663075786268  -1.36152698572380
C  -2.38256286270063  -2.67906577819467  -0.24955858799651
C  -1.80810236304772  -2.44151028886822  0.98366526633713
C  -0.73244872395986  -1.49495815782459  0.88398887301568
C  -0.12037592872762  -0.91598139006532  -0.21736350036531
C  -0.62925489400607  -1.21513187978294  -1.48681029439958
H  -3.32101432620121  -3.28010828354815  -0.28663928896315
H  -1.93018423504752  -2.93486910958549  1.96249654407001
C  -2.84304861039926  0.36076785361644  2.49396743009616
C  -2.44241772781616  1.23608737636839  1.33579766881122
C  -4.14949475474701  0.78738914857408  2.87716878225511
C  -3.31593128747748  2.18947286200787  0.84375300250562
H  -1.68721601906122  1.12077529312867  0.55626053459387
C  -4.86696954620438  1.95359743050412  2.62032420146254
C  -4.31796976427186  2.80628331151222  1.64121439710696
H  -2.99536107581207  2.47175142198614  -0.15629131683664
H  -5.50140931037897  2.38870310425410  3.36845305846438
Cl  -2.45804665752200  -2.96575040517882  -2.79930119579834
Cl  -5.12355827054869  4.27899095959734  1.75393723186753
N  -0.21118257550216  -1.11983528090602  1.95067234616420
C  -0.76638726763473  -0.96732098458445  3.13924892951669
O  0.00261202722127  -1.12752057706271  4.03201506700201
N  -2.03074069440060  -0.37800205766580  3.33573056900563
H  -4.35406641084932  -0.01261808814073  3.65062244739699
H  0.43046521301001  -0.01694231639503  0.12309715904063
Cl  0.01480155261876  -0.43817979750771  -2.83069971666224

