%nproc=8
%mem=4000MB
#opt=(noeigen,calcfc,ts,recalc=5,maxcyc=200) freq B3LYP/SVP em=GD3BJ

ts-2328.gjf

0 2
Cl  3.28629503572260  -1.83493089303730  -0.29899908082928
C  -1.48706495145019  -2.66881916992191  -1.39508165637972
C  -2.36116514649983  -2.66994376167285  -0.33583053356789
C  -2.03196520372724  -1.82411637155943  0.61466038573969
C  -0.70192931232522  -1.27052729978187  0.71484038138081
C  0.10358242325034  -1.25192923905112  -0.45250275725837
C  -0.29611353998232  -1.86223854273072  -1.61062097694713
H  -3.32488161572677  -3.13385563624008  -0.39584719382412
H  -2.60125854205736  -1.50316210135249  1.47517548637159
C  -2.96482233397586  0.71078346258225  2.77575943721954
C  -3.38203574195725  0.89873297202553  1.44789516952075
C  -4.04356783278923  1.06504790118414  3.79971910866478
C  -4.47563066726915  1.76715754763592  1.05738310186700
H  -2.55002682654588  1.01891011233167  0.81658341515943
C  -4.68092550226421  2.19775671939913  3.39019675899898
C  -4.87097423379594  2.57938853234873  2.01280983356330
H  -4.59924078903096  1.88251909189677  0.01555868226162
H  -5.33081127178700  2.61667856511769  4.13957952058108
Cl  -2.02052089141542  -3.47879302118016  -2.75693813035171
Cl  -5.45078075953924  4.06178466373737  2.04447154370030
N  -0.46528600172072  -0.63418301319468  1.88730156847578
C  -0.54963625870078  0.11560589564626  2.96521469396477
O  0.28687475919492  0.53803752845012  3.76191226142506
N  -1.78704339860601  0.54887379582242  3.36794999561980
H  -4.00997185291533  0.78967486186439  4.92262043598843
H  1.06968620430704  -0.77273227408205  -0.20001543600395
Cl  -0.34309954496596  -1.11005902821516  -3.31349939697584

