%nproc=8
%mem=4000MB
#opt=(noeigen,calcfc,ts,recalc=5,maxcyc=200) freq B3LYP/SVP em=GD3BJ

ts-3234.gjf

0 2
O  -2.18037393362791  3.33832451696124  -3.69990745020507
C  2.15241136953437  2.12662864201092  1.60876861061075
C  1.73854806374337  0.78688670348373  1.84641490608774
C  0.40054534366870  0.47222876809892  1.59831589539568
C  0.01223054183564  1.36892339370968  0.47850954699469
C  0.29346989706052  2.75505346701669  0.56071053723966
C  1.49646742442457  3.18298996128408  1.14528158082224
H  2.56391567865585  0.18716578190961  2.22439437695674
H  -0.20170862433143  -0.36291395027463  1.82680918617202
C  -2.76505107990323  0.35082976530270  -2.03517102765846
C  -3.98942277727943  0.73399150934565  -2.34784966398292
C  -1.29254530562892  1.47827630603865  -1.55600668356547
C  -4.01023864216626  1.79262443664537  -3.29078961529233
H  -4.98542017668289  0.47186546180603  -1.91828991754609
C  -1.72894211791642  1.30664452678564  -2.83702594164035
C  -2.69987928999369  2.31983473481710  -3.50353545144124
H  -4.88487786831292  2.18173881181914  -3.74483040415524
H  -1.27578638573760  0.56060550438293  -3.59680936585254
Cl  3.71457883589213  2.43230801379088  2.33512578854653
N  -0.71313555912400  0.87442087675486  -0.55152970488229
C  -1.65876177427375  -1.14941703042097  -0.72575576756025
O  -1.14467077428747  -1.82322208364338  0.08016936396242
N  -2.47074771506843  -0.89302903773587  -1.54345873730557
H  -1.65497873090980  2.65601025084319  -1.31084993202787
H  -0.20098739244507  3.31122283956593  -0.21597739129879
Cl  2.10618021507595  4.69937263884691  0.78830308393305

