%nproc=8
%mem=4000MB
#opt=(noeigen,calcfc,ts,recalc=5,maxcyc=200) freq B3LYP/SVP em=GD3BJ

ts-3254.gjf

0 2
O  -2.02385543559475  1.16864095749016  -4.99153166705164
C  2.15730332589420  2.68149207801866  1.51520158809241
C  2.17355588518908  1.34625054554638  1.07881861813446
C  0.98811835243499  0.78343225300118  0.71709377853638
C  0.10487969698813  1.77081763639675  0.09587048815940
C  0.23340356333977  3.13445137564429  0.30488624672053
C  1.33344480866299  3.65043280789332  1.05688461925881
H  2.87992994488215  0.58625835242584  1.27860531875823
H  0.83025109209132  -0.32097441033702  0.85935032808008
C  -3.78276831883630  0.43293598755319  -1.97014616635371
C  -4.81531858903276  0.99255465399409  -2.77816095207302
C  -1.37961172838371  1.42506297796276  -1.84245583413850
C  -4.23265062726875  1.33586766995595  -4.02319891244400
H  -5.88339188217287  0.96167157550599  -2.54622800745734
C  -2.34754958517259  0.60852848515799  -2.53970963900456
C  -2.78287400497609  1.13635274224664  -4.09478304267848
H  -4.91971358439447  1.68259283893324  -4.79148649439358
H  -2.00147609671130  -0.35946962164290  -2.86784421208618
Cl  3.46076176040402  3.05247102028343  2.57055545334623
N  -0.78486313869634  1.16699395762077  -0.76686691743808
C  -2.99474799367404  -1.28996794404344  -0.49282300425166
O  -2.27326047638071  -1.86261258392920  0.30006215859242
N  -3.84685558729894  -0.60460817049409  -1.06070172340874
H  -1.01008237525039  2.59193359677328  -2.57954251689411
H  -0.50850908189387  3.90026832096524  0.05947628131122
Cl  1.40149336059723  5.26224570258965  1.74704961535009

