70
 energy: -143.080588686494 gnorm: 0.089649057031 xtb: 6.6.1 (8d0f1dd)
O    -0.33539828    -4.46777685    -3.60314288
H     0.20659876    -3.71317101    -3.84009699
H    -1.25199083    -4.45735348    -3.88436901
O     0.83274457     0.84732805    -2.45163798
H     0.35957956     0.22630677    -1.89505353
H     0.58461740     1.69550687    -2.07966531
O     0.12500679     3.10780147     5.46103402
H     0.14859419     4.01149615     5.78059338
H     1.01309635     2.85687933     5.20089299
O     0.17523189     0.55302694     4.55370759
H    -0.12613245     1.31029692     5.05874293
H    -0.43305286    -0.16549359     4.73552168
O    -3.49592072    -2.07690959    -0.19667015
H    -3.43643279    -3.02370428    -0.05745744
H    -3.49322689    -1.58420372     0.62586969
O    -0.70513132    -1.65847221    -4.27390662
H    -0.19946441    -1.21250017    -3.59218242
H    -1.45797031    -1.07933579    -4.40495593
O     0.45286328    -6.37771592     0.01928522
H     0.63984780    -7.27914441    -0.24867172
H    -0.21509893    -6.06551858    -0.59365678
O    -0.35513811    -1.12813802    -0.31626987
H    -1.06450713    -1.27615351    -0.94414340
H    -0.02952187    -2.00748367    -0.11611539
O     0.28854327     4.46619432    -2.53691182
H     0.93559270     4.04709681    -3.10701963
H     0.28130788     5.38833627    -2.79947553
O     1.94289574    -2.57043351    -2.26258057
H     2.70550743    -2.31899349    -2.78654590
H     1.70538648    -1.77056826    -1.79020018
O    -3.02410418    -0.00139253    -2.10876256
Cl    -4.29996541     0.65510053    -3.02656276
H    -3.50814657    -0.59866145    -1.52604547
O    -0.47450159     4.61020484     1.34709217
Cl     0.45624800     4.65512378     2.77287341
H     0.11690301     4.60254036     0.58501018
O    -2.41936749    -1.33347146     3.02672810
Cl    -1.61963624    -2.51076240     2.09100389
H    -3.27132955    -1.71146460     3.27546079
O     3.19194511     3.25562991     3.21929643
Cl     4.80918358     2.79575212     3.49171701
H     2.66185908     2.45606463     3.11784579
C     4.77484841    -0.65599899     0.09705428
C     4.12834916    -1.33101704     1.12521371
C     2.90213162    -0.90857619     1.60231242
C     2.32567376     0.25812364     1.08908863
C     2.94346071     0.90085627     0.01664772
C     4.20928807     0.51193412    -0.40622592
H     4.56869144    -2.23819265     1.51759873
H     2.39666767    -1.45518738     2.39080331
C    -2.18254549     2.02479144     0.87348223
C    -2.21159490     2.59828354    -0.40015052
C    -3.32441335     1.91165858     1.67172774
C    -3.42167656     3.06241883    -0.90010085
H    -1.34019588     2.67255469    -1.03063728
C    -4.48537045     2.54431864     1.25822782
C    -4.49106470     3.08614171    -0.01867383
H    -3.62046211     3.55223712    -1.84450413
H    -5.42867578     2.54775606     1.78827903
Cl     6.39541428    -1.12793302    -0.29823422
Cl    -5.95252308     3.89785861    -0.51654427
N     1.12887953     0.75536326     1.62757846
H     0.82361039     0.19081008     2.40465322
C     0.27977637     1.69400315     1.06296076
O     0.66300155     2.53501567     0.28509786
N    -1.02588931     1.47327165     1.45636661
H    -1.20233158     0.90630266     2.27077579
H    -3.18753535     1.53753024     2.68104258
H     2.45812632     1.76019502    -0.41688704
Cl     5.05306782     1.55444070    -1.50466344
