%nproc=8
%mem=4000MB
#opt=(noeigen,calcfc,ts,recalc=5,maxcyc=200) freq B3LYP/SVP em=GD3BJ

ts-2182.gjf

0 1
O  -1.27962142675742  -7.19723463712436  1.06201657086086
Cl  -1.25381070158342  -6.53570446312071  -2.33114115305281
H  -1.88811058506046  -6.97973846052848  1.77176208511190
C  1.24618512612271  -3.12635042129989  3.69816796150892
C  0.13945426524265  -3.55120047483795  3.02231172345137
C  0.58688722783859  -4.44698239153801  1.88514116201568
C  0.00398637098946  -5.27380489534603  0.93706778660907
C  1.98502229407718  -4.74122605650529  2.21540554447830
C  2.33789006977351  -4.07853991573434  3.27478122868474
H  -0.79126881510071  -3.08201386294269  2.96501925307804
Cl  1.53545175557340  -1.77520438009540  4.85181910970591
N  -0.69736753914966  -5.81752219536432  0.16906203995074
H  -0.86660557579118  -5.78647157590172  -1.04667852859118
H  2.55072024272347  -5.48489334111974  1.61019417220023
Cl  3.74653716545702  -3.56806075241416  3.82154000987188

