%nproc=8
%mem=4000MB
#opt=(noeigen,calcfc,ts,recalc=5,maxcyc=200) freq B3LYP/SVP em=GD3BJ

ts-2212.gjf

0 1
O  -2.56872628013415  -6.23622241360207  0.89176518988813
Cl  -1.80015032371337  -5.17296418265550  -3.19191827863947
H  -2.52054249521066  -5.65244264092060  0.08746702770641
C  1.49317968828957  -3.31873004593433  3.96090497301880
C  0.36947955214607  -4.12263244082767  3.86108188158848
C  0.55890036137091  -4.97266393385832  2.58649768060041
C  -0.66831199419257  -5.48078513122227  1.97576915686652
C  1.68912174813075  -4.36468492349384  2.00193848182663
C  2.34642173455436  -3.42461328288835  2.84292673236885
H  -0.64898610257503  -4.07932040125922  4.18659399703556
Cl  1.14079867998914  -2.14047385837933  5.28251531608588
N  -1.48115486422382  -6.26005318703679  1.58287279665309
H  -0.97148122300560  -3.87947348835607  -2.77212960441560
H  1.60222617733901  -4.44445136085260  0.91063219176162
Cl  3.89307902943510  -2.73780008795523  2.72828546394143

