%nproc=8
%mem=4000MB
#opt=(noeigen,calcfc,ts,recalc=5,maxcyc=200) freq B3LYP/SVP em=GD3BJ

ts-2222.gjf

0 1
O  -2.74310931774193  -5.34782506430354  1.71483690346052
Cl  -1.95984957641457  -4.48167182113793  -3.65371593056662
H  -3.62433604912948  -5.78544519555908  1.66159277515501
C  1.18673414059246  -3.39774573338244  3.95320682157119
C  0.29478411136478  -4.44989656965318  4.00486585910362
C  0.20660366681060  -4.96123431710268  2.56840555480375
C  -0.61488818664661  -5.76080089059011  1.91227019713451
C  1.22511415240246  -4.13159180597525  1.85976880678777
C  1.88682386868961  -3.33788956477371  2.74047435187526
H  -0.22511241045680  -4.63505983598251  4.93372342082056
Cl  1.65270953330678  -2.33423264644360  5.23358063671544
N  -1.73637527529288  -6.12057415746539  1.83547601803765
H  -2.10574861715152  -3.97091808584182  -2.30670739684512
H  1.37226952826927  -3.79137163960719  0.88032638986128
Cl  3.41893236906594  -2.42536537780697  2.48326563585163

