%nproc=8
%mem=4000MB
#opt=(noeigen,calcfc,ts,recalc=5,maxcyc=200) freq B3LYP/SVP em=GD3BJ

ts-3129.gjf

0 2
O  -3.01658376476784  3.07724579140981  3.89383044415805
H  -2.57968134489659  2.85998933678808  4.67444464781378
C  -1.66896290339548  4.06669296454249  -0.06074667105923
C  -0.61187720423841  4.09969723119807  0.93037780254097
C  -0.03112731336024  2.82652423043091  1.26885169134282
C  0.12721001103525  1.74484173232715  0.40284476991551
C  -0.74706030225808  1.87803468451439  -0.78453138748269
C  -1.52125541529481  3.03253706436256  -1.00353355744434
H  -0.55335680402249  4.92481323037516  1.67154425764600
H  0.64790378954622  2.77852087775645  2.11058710793578
C  3.48691729555069  1.14673077076157  0.69539607622940
C  3.32070905332983  2.52530583918696  0.93725598499758
C  4.57334235388384  0.60173070370107  1.41604737259959
C  4.01121800109959  3.34587935926839  1.80778127862366
H  2.57669606603240  3.01706744781791  0.31361033269376
C  5.18859827240763  1.29576075971049  2.40473581354720
C  4.85049200077785  2.64217362742149  2.60785396356785
H  3.97519712173613  4.40673287729773  2.03362484642508
H  5.96914836539786  0.77331050338270  2.97522076695704
Cl  -3.14404329617374  4.90780918272459  -0.46819206401046
Cl  5.54358299623191  3.62075644077392  3.74578109969919
N  0.84794073582427  0.62770769637806  0.36830731622410
C  1.60764564042092  0.47097306576903  -0.78961226973751
O  1.28215279094117  0.23583863812733  -1.92164234653972
N  2.80794765721370  0.29034002197377  -0.14910501126400
H  4.80306807631045  -0.43530899155019  1.22297018412683
H  -0.79718022557809  1.20338802925736  -1.61734918067157
Cl  -2.39747684197853  2.91538169934656  -2.47199963616325

