%nproc=8
%mem=4000MB
#opt=(noeigen,calcfc,ts,recalc=5,maxcyc=200) freq B3LYP/SVP em=GD3BJ

ts-3159.gjf

0 2
O  -2.77930822468273  2.93064399942023  2.25119485181194
H  -2.67688615119915  2.13041213738008  2.82374333350914
C  -1.87945931352886  4.11547275522007  0.35893366822321
C  -1.44006795294225  3.55783158894184  1.77063826456649
C  -0.07263247065978  2.87817088195775  1.53707666337190
C  -0.00782652055334  2.05017541937020  0.41425286691803
C  -1.18512416696869  2.07568220473121  -0.38055794019440
C  -2.08873700994414  3.11147378216309  -0.45708318021428
H  -1.41002378538761  4.36737892777291  2.52275277701734
H  0.76916733577685  3.08634560890100  2.16607053178847
C  3.31800916392365  0.99648719155955  0.48870683739022
C  3.35746955968436  2.42616914597548  0.69753107727809
C  4.28602347025238  0.32657497992326  1.20633731933396
C  4.02090560056255  2.89941015356913  1.83497432989967
H  2.83452475253763  3.15392665084660  0.08562259969634
C  5.19901915147019  0.89504401378583  2.25398178646292
C  5.03770513418284  2.22626166479904  2.63735702478176
H  3.88380425301550  3.93745806485837  2.09655829436241
H  6.01260782380115  0.28365230083015  2.68737369508444
Cl  -1.79458561878479  5.88211755524262  0.11338845784932
Cl  5.47778466485087  2.91606083857025  4.09664663286888
N  0.83410226179318  1.01821439403295  0.32308554102187
C  1.35796888120738  0.60725317049207  -0.89315378393162
O  0.70755031669945  0.36953436611046  -1.89283243773878
N  2.66548176619400  0.46047196510672  -0.51271365295313
H  4.36049959491350  -0.74137127029902  1.05712040665678
H  -1.33805592115216  1.15167104356539  -0.91389190047618
Cl  -3.15060969485132  3.05555714671432  -1.74707567262322

