%nproc=8
%mem=4000MB
#opt=(noeigen,calcfc,ts,recalc=5,maxcyc=200) freq B3LYP/SVP em=GD3BJ

ts-5431.gjf

0 1
Cl  2.31717199883546  -1.40869753569210  -1.22151267604877
O  -0.09725265444910  3.65950742403588  -2.18048624430049
C  1.51693861332036  -0.53425970441212  -5.38647465965838
C  1.83324609567530  0.77004576209064  -5.04026309277600
C  0.57884558266474  1.43283154956022  -4.96480521963160
C  0.28753529919243  2.60381634665036  -4.24954694847667
C  -0.45290636129132  0.49349713892171  -5.43275586544900
C  0.10577097498785  -0.72997964364349  -5.45733279186906
H  2.75908894180368  1.28399050756997  -4.85781852760345
Cl  2.56571011987236  -1.67560083753380  -6.11207795282457
N  0.12720382484996  3.12532106118592  -3.21379477162048
H  -1.37543487305645  0.83174141509998  -5.89126563676556
Cl  -0.48074832281849  -2.28791074253561  -5.87159894357441

