%nproc=8
%mem=4000MB
#opt=(noeigen,calcfc,ts,recalc=5,maxcyc=200) freq B3LYP/SVP em=GD3BJ

ts-5461.gjf

0 1
Cl  3.01545007429466  0.39389033875740  -3.22698018622037
O  -0.72536465629038  3.37467810021506  -2.41629200454245
C  2.35152085755541  0.14680756069494  -5.81385243597686
C  2.53021470888787  1.40331372682555  -5.11875075870819
C  1.20895822002739  1.92454750941717  -4.90814091141542
C  0.86337597462563  3.12455945679862  -4.15927043417739
C  0.26196111489310  1.07805124602427  -5.55502982211247
C  0.99116303981701  0.08727862982027  -6.19491373462385
H  3.39548573001722  2.02858808718554  -5.04467255207099
Cl  3.66808129275361  -1.04080816862745  -5.83033574806147
N  0.02548520170623  3.25928291499175  -3.32315440500554
H  -0.81052309477039  1.21297895442512  -5.49602135106030
Cl  0.32585074926538  -0.98821292011157  -7.34140799427244

