%nproc=8
%mem=4000MB
#opt=(noeigen,calcfc,ts,recalc=5,maxcyc=200) freq B3LYP/SVP em=GD3BJ

ts-5481.gjf

0 1
Cl  3.49018016154137  1.40239877197764  -3.06686004765101
O  -0.52635804856505  3.96912504787113  -2.19715240303893
C  2.78711653428856  0.43212947608890  -5.74945002644291
C  2.78136668475666  1.53020026697042  -4.72671241325664
C  1.21691785377120  1.70404471106561  -4.60697329170417
C  0.61623100966569  2.53860644308693  -3.71601640994374
C  0.75492398589069  1.43962411687471  -5.88142861135279
C  1.57430144983828  0.51472619361292  -6.50881727363936
H  3.24595044514422  2.46978766657452  -5.10214422800588
Cl  4.01039387411724  -0.41075825421817  -6.37923131175583
N  0.07928792104795  3.32182666412846  -2.98676763156229
H  -0.26121563889251  1.60540940432447  -6.17617870746966
Cl  1.35398559205488  -0.52268332007015  -7.84659357712082

