%nproc=8
%mem=4000MB
#opt=(noeigen,calcfc,ts,recalc=5,maxcyc=200) freq B3LYP/SVP em=GD3BJ

ts-5491.gjf

0 1
Cl  3.61947641373735  1.47203791716635  -3.11162270098127
O  -0.27081963617809  3.87462498373528  -1.89455931659551
C  3.00188138408311  0.66172169529685  -5.74180843862374
C  2.74777631868097  1.80623904702078  -4.88729565284939
C  1.24002430518665  1.86655431384550  -4.69561238580567
C  0.60419777771705  2.83340973731078  -3.90468692975330
C  0.71579451976643  0.97458031032956  -5.63029294013997
C  1.72787206238385  0.26357162252715  -6.30255053771376
H  3.29235818350550  2.72706348337340  -5.03358272231325
Cl  4.54027277619437  0.05275046463510  -6.24025942311034
N  0.22186112626772  3.31122531645357  -2.90754506342840
H  -0.33167712924748  0.85996495254298  -5.75881875032347
Cl  1.60392805572109  -0.13594271138105  -7.94075483335801

