70
 energy: -143.136751609044 gnorm: 0.114515400169 xtb: 6.6.1 (8d0f1dd)
O    -3.74094891     0.65987059     5.20210355
H    -2.83309546     0.55369007     5.49169954
H    -4.19651878    -0.17607474     5.08812903
O    -0.99913193     0.78463735    -1.64401150
H    -0.51412832     1.59329639    -1.47028514
H    -1.78999434     0.74724217    -1.10320070
O    -0.19503029    -0.36329136     4.19620041
H    -0.69738393    -0.70150733     3.45283685
H     0.51243778    -0.99237020     4.34814482
O    -1.25850337    -0.57109670     1.65367511
H    -2.16699382    -0.41869199     1.38767346
H    -0.86992058    -0.69359368     0.78572559
O     2.13715683    -2.16664271    -4.66879180
H     2.74547024    -2.44265381    -5.35662308
H     1.50643867    -1.52993870    -5.00958605
O    -0.28586687    -1.87183852    -0.82229310
H    -0.31011372    -1.01558585    -1.25308474
H     0.27000797    -2.47364838    -1.32045725
O     1.06682460    -3.63983581    -2.34763772
H     1.46763398    -3.17815004    -3.08624149
H     1.72365533    -4.07824856    -1.80384894
O    -3.08654241    -1.86437694    -1.71786003
H    -2.20656464    -1.98488670    -1.35667489
H    -2.99217615    -2.06306631    -2.65110922
O     0.35133495    -0.33325521    -5.98601840
H     0.72261431     0.40583172    -6.47103463
H    -0.36350731    -0.00582755    -5.43726574
O    -3.39482374     0.16264088    -0.08395430
H    -3.65311551    -0.66734212    -0.48861703
H    -3.92310953     0.88456491    -0.42903126
O    -1.58618344     0.89121220    -4.48967848
Cl    -3.24714110     1.26819199    -4.47330458
H    -1.29456818     0.58179911    -3.62376250
O     2.85784617     3.05881045     3.95742311
Cl     2.77599850     1.69604523     4.97592032
H     2.04664600     3.54527190     4.14688719
O     1.57723140    -2.74242245     0.75423364
Cl     1.66624758    -1.97696403     2.27321795
H     0.63052038    -2.62584012     0.61024429
O    -0.19775118     2.27272572     4.52886097
Cl    -1.22384827     3.16113467     5.55794559
H    -0.34514692     1.35412906     4.78389575
C     4.91408280    -0.22033650    -0.48564418
C     4.75895153    -0.25099203     0.89483291
C     3.63421501     0.25704431     1.51656897
C     2.65795081     0.80741630     0.67937740
C     2.71749126     0.79058195    -0.71384440
C     3.89202854     0.30107096    -1.27352522
H     5.33164069    -0.92327485     1.52005113
H     3.43438690     0.14329514     2.57634505
C    -1.70563512     2.93751729     1.25563409
C    -1.86177060     3.64570155     0.06149245
C    -2.83886020     2.65868040     2.02498970
C    -3.14219418     4.03615344    -0.30963062
H    -1.01360475     3.96540209    -0.52226457
C    -4.07640282     3.21663856     1.74888595
C    -4.24529019     3.74331257     0.47681124
H    -3.26376446     4.52030708    -1.26991762
H    -4.85888799     3.12391171     2.49044495
Cl     6.28353160    -1.00310970    -1.20473011
Cl    -5.83783421     4.11449693    -0.13035069
N     1.47559846     1.11649793     1.36933859
H     1.51478550     0.79898384     2.32506026
C     0.60690868     2.08560095     0.89286027
O     0.86115657     2.65004867    -0.14443964
N    -0.54703945     2.23489516     1.63741945
H    -0.55412160     1.90305954     2.58909324
H    -2.62646023     2.11142858     2.93758257
H     2.04492845     1.36109656    -1.33363250
Cl     4.19831687     0.48639976    -2.96975336
