%nproc=8
%mem=4000MB
#opt=(noeigen,calcfc,ts,recalc=5,maxcyc=200) freq B3LYP/SVP em=GD3BJ

ts-2472.gjf

0 1
O  1.59531484259533  0.72222450672254  2.24229513461374
Cl  1.27241446642935  2.26323206864938  1.89021877301480
C  2.45899943669333  -3.26182680445525  -2.85231454795708
C  1.64006870812281  -2.61919063611658  -3.78556040542727
C  1.55032382011869  -1.19094120602421  -3.76789441414242
C  2.02611070241254  -0.39170035239682  -2.70016778825412
C  2.79199031049947  -1.15981891566485  -1.71107847160888
C  3.03855259312517  -2.48982570362754  -1.73413960653960
H  1.38912515647932  -3.03298457537324  -4.76527516264905
H  1.00162234184094  -0.92353836823132  -4.64200572766292
C  -0.72973576769455  3.31343298850365  -1.61982381014716
C  -1.44397683846605  3.59913995376490  -0.38423914401450
C  -1.03787138499744  4.16126980426832  -2.68819841200474
C  -2.57778618762119  4.36774757696007  -0.29234459590359
H  -1.01975138881630  3.11875823269995  0.51128441174385
C  -2.05300112350280  5.01508127515336  -2.53559176187039
C  -2.91483032877591  5.04655380324981  -1.40691871166809
H  -3.15111712206596  4.36638868461253  0.62270306239818
H  -2.31758191944031  5.61519100107814  -3.43045375009384
Cl  2.67818016190792  -4.99756852061682  -2.96163241788237
Cl  -4.55885048665364  5.83789388721793  -1.46910821159287
N  1.64116889537731  0.72669817390371  -2.13818115816424
C  1.17297315916316  1.97463204449151  -2.60601782899826
O  1.56035918310511  2.76271692602808  -3.42804270203881
N  0.11273176806543  2.27171749640464  -1.71999954307762
H  -0.36209046257018  1.43627406612548  -1.37659613909227
H  -0.61658072387265  3.80584416420386  -3.59250805390245
H  3.37027230446241  -0.57538217755436  -0.97474515491580
Cl  4.14438699474391  -3.36958674440881  -0.79741015258093

