%nproc=8
%mem=4000MB
#opt=(noeigen,calcfc,ts,recalc=5,maxcyc=200) freq B3LYP/SVP em=GD3BJ

ts-2492.gjf

0 1
O  0.94420653856095  2.27345957220778  2.37012150388110
Cl  2.26647326488383  2.15064227658585  1.54823625268209
C  1.70766851637138  -3.00783549026223  -2.36993006944155
C  0.61886166725128  -2.47880799836211  -3.08565533424244
C  0.35634634188502  -1.08028539505769  -3.13124033929540
C  1.04818824624890  -0.26004804734660  -2.21199373601840
C  1.99007408761907  -0.80697114342508  -1.40483722297748
C  2.41165297001300  -2.05587112580099  -1.49391414888919
H  -0.07910994635457  -3.20520498376698  -3.48154661273186
H  -0.37144876296657  -0.67121887091373  -3.84610083896752
C  -0.52388744209169  3.73276163950523  -1.01373863421603
C  -1.28412863965471  3.64367490478409  0.06822040911277
C  -0.91224950759853  4.48523503460562  -2.18058715719291
C  -2.65608230318762  4.01608327038681  -0.13498503232303
H  -1.07436610413039  3.10200059394787  0.96557751748809
C  -2.17396158523430  4.84022358272160  -2.37651669176250
C  -3.03282350702202  4.60967994859648  -1.29054506332404
H  -3.40008297419411  3.77911771657319  0.57151975751681
H  -2.44357894195879  5.46788171790230  -3.18583829513117
Cl  2.55850964632162  -4.52381714120594  -2.57147489928221
Cl  -4.69157931650469  5.14516661547220  -1.27554659983268
N  0.66719750777123  1.03024364839684  -2.07976336898145
C  1.21596566631937  2.19898127438172  -2.25195525380659
O  1.74165323390800  2.71344691040930  -3.16412322196597
N  0.75369571449832  3.16523557880533  -1.06948367485862
H  1.03161037983146  2.75015475496739  -0.21871299237598
H  -0.12524666424625  4.78847675225108  -2.83448117009023
H  2.41478606733474  -0.19731078590417  -0.61842993639082
Cl  3.66389386754435  -2.46688522595819  -0.33372666428368

