%nproc=8
%mem=4000MB
#opt=(noeigen,calcfc,ts,recalc=5,maxcyc=200) freq B3LYP/SVP em=GD3BJ

ts-2502.gjf

0 1
O  1.42631550148537  2.34295573403955  1.13784278119354
Cl  2.93394532061823  1.86639346544346  1.38204885090970
C  1.71586881119648  -2.57853532316483  -2.19433741488764
C  0.52424602902432  -2.29466373293735  -2.71444965804673
C  -0.15709442509343  -1.07520904745903  -2.47041964096649
C  0.69544860767978  0.00825358062100  -2.10806790944116
C  2.03347787164078  -0.28058717328073  -1.70972817725381
C  2.42846422780541  -1.53509868484670  -1.40441545421051
H  -0.01753575435196  -3.01468409176119  -3.32880126800709
H  -1.20317903200948  -1.24314487992943  -2.59452031298353
C  -0.51797590547865  3.53264733734626  -0.93874858594221
C  -1.19616006001460  3.45528568724081  0.24441722299226
C  -1.02934979885894  4.17653308735730  -2.15397715995724
C  -2.58344996159513  3.89766302439816  0.17288019797227
H  -0.67962727196602  3.22191824167812  1.18294665237932
C  -2.28383600137801  4.64629289846230  -2.16610575972819
C  -3.09906284948244  4.53511662976108  -0.94833108358286
H  -3.25763572280280  3.84978392367409  1.03212308578092
H  -2.72220896767663  5.22159634305512  -2.97330483829953
Cl  2.22296432772003  -4.20195962645253  -2.45940929318154
Cl  -4.80715912833652  4.94132446007664  -1.42273386460429
N  0.19587383994095  1.22118647587150  -2.06000797861973
C  1.12707913255538  2.20872447348831  -2.01841085757566
O  1.97786936094785  2.64870190278929  -2.82477140387010
N  0.84725233016964  3.07311988348943  -0.92812746909710
H  1.11149748713231  2.48507288236594  0.12147099100690
H  -0.33547472279094  4.23461226636637  -2.96981360184772
H  2.44571786949057  0.53367941762414  -1.10732674149427
Cl  3.34152452404626  -2.20130487773089  -0.13817661616073

