%nproc=8
%mem=4000MB
#opt=(noeigen,calcfc,ts,recalc=5,maxcyc=200) freq B3LYP/SVP em=GD3BJ

ts-104.gjf

0 1
O  0.20888567679882  2.28111706159036  3.71247371568499
Cl  -0.29565045066434  4.41762778962511  3.63358086222225
H  1.13683615664586  2.33179978771247  3.64516549365998
C  -4.53013519670166  -1.53473055779592  3.52887961736185
C  -3.89988788155017  -0.75530903953794  4.52519506188565
C  -2.63238779207256  -0.17988020645308  4.31206005289640
C  -2.03986627863729  -0.28627135805357  3.02965254498642
C  -2.66570089608863  -1.06400261471683  2.03623938989878
C  -3.89681044963949  -1.60817894861825  2.27337763839658
H  -4.25286589877730  -0.49671786049293  5.45224288933980
H  -2.14387536408704  0.52551019749275  5.01494839032751
C  2.08974083602407  -2.32180475161318  2.06678770642428
C  3.40782411382503  -1.95828558513885  1.89257155874764
C  1.61375853192241  -3.59246564911994  1.85135728782793
C  4.23811969395401  -2.97694961131058  1.38570776632683
H  3.63307077174627  -0.91054843612875  1.96125099508858
C  2.46463220603643  -4.57543571944808  1.42365420295245
C  3.70512898421903  -4.16382798090678  1.06448278969061
H  5.29414046460681  -2.81330749230743  1.20643569798187
H  1.98846904763040  -5.54672847145345  1.16218407236034
Cl  -5.57671939167404  -2.85707786137546  4.04511055835584
Cl  4.48226101226480  -5.27338299298931  -0.02021204093628
N  -0.67083253605767  0.17867130995038  2.65942845143825
H  -0.19533902714585  1.33904215879811  2.99130041652234
C  -0.00636079698475  -1.03531321415829  2.84330631078226
O  -0.46524523630995  -1.90480805522182  3.59240907098609
N  1.14346202357544  -1.22082419005795  2.08431935798901
H  1.39619014316135  -0.46428813742602  1.50616674847498
H  0.60522158157456  -3.86188786798361  2.13808301124726
H  -2.10210962228189  -1.10768949216463  1.08567705530968
Cl  -4.79928384357922  -2.45030454431196  1.04614769384701

