%nproc=8
%mem=4000MB
#opt=(noeigen,calcfc,ts,recalc=5,maxcyc=200) freq B3LYP/SVP em=GD3BJ

ts-114.gjf

0 1
O  0.16747545469038  1.87166219815650  3.00286075959852
Cl  -0.48059955360412  4.91202639216367  3.65086197291215
H  0.54161733987684  2.31336703186849  2.19729692275354
C  -4.16067061306904  -1.97785845301529  3.80298490950714
C  -3.31437595535861  -1.42688862628809  4.71992148616843
C  -2.39867128405864  -0.53746092092737  4.20154176839461
C  -2.14524743582606  -0.51216472084634  2.79024627631670
C  -3.14521285306235  -0.83414959463463  1.87973817923864
C  -4.10091209734986  -1.64423047582883  2.47799817158557
H  -3.45636453604495  -1.41945436762494  5.84454550119357
H  -1.53002037451577  -0.14473688501573  4.66814800309302
C  2.18683260920806  -2.15475844013414  2.33194251282405
C  3.52753591734504  -1.99239783205078  1.98449866141369
C  1.56148782330777  -3.44412739507122  2.05234635508991
C  4.21943429051926  -3.04782320832092  1.35847650135147
H  4.01017733282535  -1.05937332924181  2.21900878417376
C  2.21865715249907  -4.42363110045247  1.26646797179451
C  3.51517932801379  -4.13216808159037  0.84961959809253
H  5.20573304427866  -2.77598845358861  0.94825373360263
H  1.73882136980097  -5.33529698823556  1.16952000515573
Cl  -5.61565944017005  -2.79753952243872  4.28609436126266
Cl  4.38011959600756  -5.22651763602815  -0.25262064045497
N  -0.79153660587927  -0.46329473449148  2.53754378348071
H  -0.17418199464656  0.89911962717033  2.48157779549506
C  0.08599438823234  -1.28120152870940  3.12710996918401
O  -0.19877919133938  -2.33764437169093  3.71185404061516
N  1.38717189261731  -1.05720614445466  2.83609567297715
H  1.74266579370301  -0.15645218105785  2.61840029884317
H  0.56531665370221  -3.60746168784543  2.45494643799804
H  -3.31258758684719  -0.46068058730235  0.90780249909187
Cl  -5.21770863180550  -2.44423377907320  1.34061433309082

