%nproc=8
%mem=4000MB
#opt=(noeigen,calcfc,ts,recalc=5,maxcyc=200) freq B3LYP/SVP em=GD3BJ

ts-124.gjf

0 1
O  0.35983972769790  1.82782166259411  2.13541997216312
Cl  -0.74547805852742  5.45120386572317  3.60150835376367
H  0.60106129960635  1.98528414500227  3.10993724131117
C  -4.40838934967483  -1.94329277536017  3.96747833628266
C  -3.33803661614582  -1.68848239727420  4.80049937042450
C  -2.14545327258048  -1.39414312232101  4.25935463916284
C  -1.99052708891952  -1.17604550042971  2.85204009260833
C  -3.11334579695757  -1.23934511159425  2.02415663178040
C  -4.30547249969632  -1.65429170217194  2.61577849103173
H  -3.30789835564855  -2.03730946708262  5.82478057678076
H  -1.32900691722685  -1.17731899872393  4.95936410795023
C  2.25173367651516  -2.28130724826449  2.41507257890242
C  3.60686934326876  -2.07160975492159  2.09846686735946
C  1.50927011510153  -3.41145491529447  1.89721061620947
C  4.21311231177569  -2.85006802114298  1.20416096149271
H  4.12381641916643  -1.27424195230322  2.61127302663575
C  2.18670401773145  -4.26710275305551  1.10192830479099
C  3.49288125178984  -3.92198603135718  0.66329681473902
H  5.24101049332015  -2.66923243407493  1.00892313947529
H  1.70185228804817  -5.18105895221558  0.72335259012503
Cl  -5.67933828488022  -2.89470007282759  4.62357921694331
Cl  4.17027241531788  -5.15472530932443  -0.33852627429770
N  -0.63919141313356  -0.86826567343111  2.40143769131610
H  0.11205413011973  0.94721153276553  2.04716416709749
C  0.10530596531475  -1.64015696946230  3.13692733478076
O  -0.26448012945218  -2.55230258284290  3.89177093022327
N  1.51513987166749  -1.36473943257496  3.11726671290874
H  2.07760411146043  -0.62023582959344  3.48105738317127
H  0.50805411714801  -3.49704747908431  2.21912797592602
H  -2.94046442267127  -1.07593553215330  0.95987173105308
Cl  -5.69416296590020  -2.22300061236347  1.56692491679593

