%nproc=8
%mem=4000MB
#opt=(noeigen,calcfc,ts,recalc=5,maxcyc=200) freq B3LYP/SVP em=GD3BJ

ts-1799.gjf

0 1
O  -4.86602051539293  -0.22436936100335  -3.31899664591024
H  -4.63024429088055  -0.95875990348976  -3.91495530261300
C  1.08616032124352  3.62084142016626  3.01320118235623
C  2.07368593510695  3.59326469777366  2.04747117685615
C  1.75635073504375  4.24597214906366  0.88740751861081
C  0.42010681355248  4.72010044205669  0.62594036197030
C  -0.40619617748998  4.94534387447015  1.82771453546372
C  -0.07597361458577  4.47000239041227  3.02573745857934
H  3.08363831331752  3.19072387365486  2.13412776251472
H  2.47763805282551  4.19015184037356  0.08493539008487
C  -2.23036227922833  2.16245351210654  -1.18282666225711
C  -1.79565965207680  1.60688762123735  -2.48122595410092
C  -3.50377123492254  1.64629777090547  -0.70176139222068
C  -2.55564442085469  0.66011738582684  -3.06649998151341
H  -0.83780579049590  1.95130085894496  -2.78595360864643
C  -4.28612824783968  0.94076608985406  -1.53478672395612
C  -3.87240707593698  0.34670543874224  -2.67826647541582
H  -2.04808587916686  0.08052844188622  -3.90271436729557
H  -5.31518399629134  0.66659447339721  -1.24192566233883
Cl  1.17885949729909  2.19014224982347  4.17762357356532
N  0.08972499807621  4.79456261375782  -0.62259023131898
C  -1.11554683621469  4.40418436410119  -1.06236226275339
O  -1.83362720023856  4.88430508689341  -1.96387544260209
N  -1.60597785189689  3.20020684294640  -0.59817152698320
H  -3.78121776604128  1.92960739953277  0.31229823023007
H  -1.29089014799366  5.54522062586711  1.65595562815523
Cl  -0.93238560533135  5.25401469107299  4.20463727627897

