%nproc=8
%mem=4000MB
#opt=(noeigen,calcfc,ts,recalc=5,maxcyc=200) freq B3LYP/SVP em=GD3BJ

ts-1839.gjf

0 1
O  -5.13862836061010  2.01852035177315  -4.48708712879024
H  -4.56973063241232  2.34360887827419  -5.25528886542783
C  0.04804377408377  4.03353710416083  3.38253541775955
C  -0.30729260183643  3.16141325915057  2.29480419523333
C  -0.48309291762516  3.69958023545578  1.04362868315126
C  -0.87619024877707  5.07251300470522  1.00650971299016
C  -1.04108478915262  5.82226631636706  2.21640426881471
C  -0.47577043051798  5.38985195535608  3.42701964952743
H  -0.42668182823221  2.14182938049627  2.55487612705899
H  -0.10330766340850  3.02278572749913  0.26319601166033
C  -3.35445822619767  3.51735979924637  -1.12657338150723
C  -2.53598470725847  3.36404062022941  -2.29672439620025
C  -4.44182212007801  2.61103617189537  -0.91708304665757
C  -3.20658577380532  2.89669771372106  -3.48947224665739
H  -1.84697410601219  2.55199385048319  -2.04043899807494
C  -4.87229202614209  1.85270420080871  -2.01323392786139
C  -4.49071571348829  2.27037238808874  -3.33956277209185
H  -2.77715974227752  2.61650089887394  -4.37319000438196
H  -5.70820616860412  1.21926356123706  -1.81602644790054
Cl  0.71701925179179  3.25318101989803  4.71966885789467
N  -0.89990348782116  5.55554834255415  -0.23458125226613
C  -1.77390704431278  4.97136381075921  -1.00199772126044
O  -1.60027734755690  4.65187905514326  -2.32527650523393
N  -2.80823593394298  4.36659572614494  -0.35329174319458
H  -4.87542352179284  2.62528406379866  0.05224302926508
H  -1.13697574055993  6.87293360028931  2.02698501990409
Cl  -0.54030686484014  6.57710817466381  4.65944879760926

