%nproc=8
%mem=4000MB
#opt=(noeigen,calcfc,ts,recalc=5,maxcyc=200) freq B3LYP/SVP em=GD3BJ

ts-1849.gjf

0 1
O  -5.34625557759905  2.00370185831832  -4.56440101707193
H  -4.73894192933419  1.70437606690860  -5.30424494747183
C  -0.28578076833106  4.19138093835361  3.61110485837496
C  -0.59516794603619  3.35215910869873  2.54596392542076
C  -0.95508533401904  3.91282231168871  1.32420227889970
C  -1.11610726467258  5.25654979170112  1.10561597794926
C  -0.87864218250211  6.06252520851633  2.24562608229495
C  -0.68160203779757  5.51779095750352  3.51374197059046
H  -0.19958561345107  2.36450890015831  2.70977458971804
H  -1.05156207728569  3.17415728666561  0.58773152256590
C  -3.35720157510345  3.09685123918780  -1.27411821564768
C  -2.50913562481627  3.36663679980971  -2.53536176573885
C  -4.70327049375604  2.70632800610459  -1.22414419287004
C  -3.38651167352448  3.12817847181101  -3.70263798342500
H  -1.70453683726963  2.60977311406066  -2.73976157997640
C  -5.38104956757455  2.77507546517808  -2.45529648258398
C  -4.58935403283246  2.64052947824303  -3.63045994271442
H  -2.84122235905289  3.02797648751465  -4.68539899738513
H  -6.44934618296438  2.96452776078931  -2.54089083962206
Cl  0.49365180760281  3.69927152911594  5.05115822923537
N  -1.28751546357437  5.53039675105758  -0.20391140904294
C  -2.01377850637148  4.83093972442434  -0.93698179557684
O  -1.68618893454033  4.52967212114285  -2.20307483477358
N  -2.96590042408169  4.01350819044609  -0.37221720922539
H  -5.25735402884662  2.99091326956802  -0.33388379662075
H  -0.74468575538816  7.13772258688735  2.06788755265766
Cl  -0.14427299729914  6.32031674097102  4.85325244276107

