%nproc=8
%mem=4000MB
#opt=(noeigen,calcfc,ts,recalc=5,maxcyc=200) freq B3LYP/SVP em=GD3BJ

ts-667.gjf

0 2
C  -5.04122641756920  -1.02563883408746  -0.45218894091461
C  -4.27160786576347  0.21688084950364  -0.71226707226516
C  -2.89241979597383  0.24370450467367  -0.49638364676842
C  -2.20802858005885  -0.92901453496908  -0.01981409515541
C  -2.84990269011379  -2.19329279811208  -0.06700772302914
C  -4.23707565629392  -2.19616613941767  -0.02485278627144
H  -4.62390731569639  1.16007757568834  -1.06771090235632
H  -2.41525605817876  1.17511953906820  -0.73348069523534
C  2.26663642052660  -0.44689788286529  -0.93313549006904
C  3.37140466040976  -0.67391164998918  -1.73235857984343
C  1.94815186228915  -1.57550453573640  -0.05198461735348
C  4.08045758863776  -1.88461745864774  -1.72723654956223
H  3.63138742765791  0.03922751594420  -2.50759903458209
C  2.80439557575893  -2.71835660244033  0.07558611251868
C  3.82739217974142  -3.00501299286687  -0.84289101188641
H  4.80761701800409  -2.10142267505037  -2.52275320989503
H  2.37634278633963  -3.55859368038147  0.65657989741142
Cl  -6.69191365298273  -0.87877976113518  -0.30009246164231
Cl  4.37202649287487  -4.69058870670213  -0.87171624838187
N  -0.81203432845659  -0.98643797222084  0.14878344513975
H  -0.49116818858367  -1.87082350493393  0.48108575407264
C  0.03673926030680  0.35308836877187  -0.98094221733717
O  -0.81125871927410  1.07897149867971  -1.26707175349483
N  1.30100945728944  0.36711167003601  -1.41496272832506
H  1.20685276304183  -1.48087947218909  0.72986346316070
H  -2.29751652002310  -3.11205013144497  -0.01799957212015
Cl  -5.12274691049751  -3.73214051482175  0.04725793089865

