%nproc=8
%mem=4000MB
#opt=(noeigen,calcfc,ts,recalc=5,maxcyc=200) freq B3LYP/SVP em=GD3BJ

ts-677.gjf

0 2
C  -4.82244086801772  -0.96309202080359  -0.82441311290358
C  -4.24727386610225  0.08854062120350  -0.29303345926771
C  -2.88773445250032  -0.00855753897237  -0.04244821865956
C  -2.16037023817085  -1.23805690559507  -0.03462650160409
C  -2.85345810348559  -2.37146372236036  -0.38147968897295
C  -4.19321690588586  -2.15590194423746  -0.42088835972939
H  -4.86963174660170  0.98107795122847  -0.30555555973387
H  -2.36302254379365  0.79510088626929  0.52344713900466
C  2.14796940378593  -0.47171644725296  -0.65839063221437
C  3.00918156020001  -1.06204969754234  -1.58341925817726
C  1.74147412581793  -1.57937650084876  0.18770590607779
C  3.76292491250370  -2.19365692096308  -1.41793444267336
H  3.29378174412989  -0.35869710155483  -2.39034784589595
C  2.11161146214618  -2.86681799061322  0.01895950306475
C  3.24656498386333  -3.15041416036802  -0.65268189420568
H  4.78828337417595  -2.22993531469399  -1.75568948489463
H  1.79329456866286  -3.59518510481812  0.74330852640573
Cl  -6.53963620236773  -0.81623777813317  -0.65855939186594
Cl  4.08464516644087  -4.39110441140185  -0.15193557803556
N  -0.78594159069488  -1.24915821582430  -0.15003371515875
H  -0.56868929200905  -2.19894608325517  -0.32955216297726
C  0.20589135948925  0.94794670941624  -0.97867440990816
O  -0.93241117496726  1.19402131185938  -1.23331152057581
N  1.43040040098299  0.70223648710332  -0.94996545511224
H  0.88442804950339  -1.52511373628727  0.92327673273174
H  -2.42537282810425  -3.38318066999831  -0.46432237907907
Cl  -5.07380565529168  -3.59800461246673  0.08693775261551

