%nproc=8
%mem=4000MB
#opt=(noeigen,calcfc,ts,recalc=5,maxcyc=200) freq B3LYP/SVP em=GD3BJ

ts-687.gjf

0 2
C  -4.96782237713554  -0.92073205376076  -0.09987120409608
C  -4.14813681705735  0.06649367068003  0.35946061571953
C  -2.75142603486867  -0.10319609424469  0.29157495809821
C  -2.03333541307997  -1.36507023466888  -0.20356628187840
C  -3.01198777227270  -2.40093402622021  -0.65548048438188
C  -4.34739520159007  -2.31955004350417  -0.18426923453051
H  -4.70605088320808  0.86500067575370  0.87287817269314
H  -2.06821372702232  0.63276728815116  0.64445443046088
C  1.84867325097514  -0.61614572612321  -0.61151319269693
C  2.78040358277187  -1.25793145278143  -1.51708166869715
C  1.42635058749764  -1.46950523519649  0.40789947326827
C  3.29788950013973  -2.50236285702079  -1.22724340806318
H  3.17743786745916  -0.65792097120741  -2.28935613215385
C  2.15847773567960  -2.59288394138598  0.90576658238516
C  2.99400344688731  -3.19888086714076  -0.01885778101683
H  3.90835272783524  -2.89509046764759  -2.02222603638981
H  2.11433268003555  -2.78502227673504  1.97214861355354
Cl  -6.40580474467248  -1.11721743426536  -0.95101637260198
Cl  3.95984741008365  -4.38788186504971  0.35792313380603
N  -0.77796669871421  -1.23969092370511  -0.72023716022496
H  -0.46843421699575  -2.02831803613177  -1.22047567239066
C  0.27704467414473  1.30962620761862  -1.10542630246551
O  -0.30675571715729  2.16823994983535  -1.54346542671371
N  1.19301047762043  0.67813736030471  -0.55030450574305
H  0.74786351389752  -1.17155757776452  1.15279660499519
H  -2.60160480072141  -3.14118281731061  -1.31946229477522
Cl  -5.34873826568709  -3.71057574869576  -0.09515549301862

