%nproc=8
%mem=4000MB
#opt=(noeigen,calcfc,ts,recalc=5,maxcyc=200) freq B3LYP/SVP em=GD3BJ

ts-4689.gjf

0 2
H  -0.07991404690107  -3.59710981803881  -0.82265309375587
O  0.18850437598125  -1.20600438922846  -3.37760611435999
Cl  0.61738120242023  -6.26571283401575  -0.15289159040493
H  0.26573448921108  -0.26908160133984  -3.66313119905879
O  -0.75045291337901  -3.16907015083179  0.97297849262749
H  -0.79602279212426  -2.59124136424223  0.24201508882461
C  0.94996158904775  -1.48702768005708  3.61272802345724
C  0.48071788020124  -2.55956081987661  3.02816124643362
C  0.46587372655952  -2.59139475325798  1.42607724176455
C  0.52293836428156  -1.27011364575188  0.72958442937817
C  1.08507433096319  -0.29157994109484  1.48212412765598
C  1.18907031421060  -0.29640278006128  2.86499785489602
H  0.05548114253740  -3.27911214862580  3.69673109273238
H  1.28313908859267  -3.23746198563169  1.17258949795709
C  -1.40511385516632  -3.68881397800454  -2.61437341922019
C  -2.14418840385987  -4.55008116346584  -3.46080329338874
C  -0.48844114740051  -4.31484658218870  -1.75239087125874
C  -2.39736363694118  -5.82052325696913  -2.87500079421068
H  -2.86868353367306  -4.18202737824015  -4.17279620377741
C  -1.06590587098045  -5.44055612977874  -0.90205787037272
C  -1.88483906191941  -6.31741485330287  -1.70285029660101
H  -3.07418664881178  -6.50876577599788  -3.33863198585395
H  -1.78721131443105  -5.10968252569725  -0.21509867587012
Cl  1.07950023723381  -1.62030632764038  5.35005396905623
Cl  -2.42022234378464  -7.82343686806153  -1.12420572868177
N  0.28383828499575  -1.27040962182190  -0.51163657495052
H  0.61583188427359  -0.55866799345947  -1.15467777453114
C  -1.18970698051117  -1.34987762117485  -3.37865333138341
O  -1.81456786653749  -0.40255241846757  -3.76839688825876
N  -1.55959385093961  -2.46150398158289  -2.88280085228669
H  0.49056400851744  -4.35181989851338  -2.21767720154445
H  1.60218778340321  0.46075334195466  0.90176450074836
Cl  1.64719275783968  0.99599659167360  3.70796696398241

