%nproc=8
%mem=4000MB
#opt=(noeigen,calcfc,ts,recalc=5,maxcyc=200) freq B3LYP/SVP em=GD3BJ

ts-36.gjf

0 1
O  0.27650020193572  -4.13206189860272  -4.65317704164263
Cl  0.94786716577243  -5.98916380036916  -1.32491974526541
H  0.97908794090374  -4.47063443144386  -4.11538371612190
C  -4.89296662039087  -1.16094758648635  -1.54021934364634
C  -4.14963417295367  -2.14486175977016  -0.82628480700032
C  -2.83765899441108  -2.32000012711586  -1.01626987202312
C  -2.17220497390054  -1.70200695171466  -2.11048896318189
C  -2.85093110751278  -0.72887046854393  -2.80212800057717
C  -4.19440035172123  -0.45643867716683  -2.52947644370766
H  -4.60135775052983  -2.57515123726170  0.02254834556051
H  -2.31052040593685  -3.18118642817496  -0.49720976731162
C  2.60143951639263  -1.50272362312022  -2.81126027089341
C  3.74499659834071  -1.92208096324206  -3.58709765579903
C  2.77669240451689  -0.43377408003304  -1.98390920156110
C  4.81990436326644  -1.13824669942471  -3.59894001827535
H  3.65727808706685  -2.93372224998530  -4.12288246515286
C  3.87260269573399  0.38307344805782  -1.97341108765653
C  4.84827711532735  0.10669938787510  -2.90724170615703
H  5.69855805184202  -1.35189050433505  -4.28028017318291
H  3.87250703373337  1.33201265133902  -1.45202715378401
Cl  -6.58459531045536  -1.14170307820107  -1.37334629665967
Cl  6.14975420287350  1.23145386339206  -3.46422756600798
N  -0.89038107540393  -2.06507399111137  -2.32757397325850
H  -0.57695857875043  -4.93409920267330  -4.75944589665109
C  0.16239829960980  -1.32605529936699  -2.65629241498834
O  0.14024259696741  -0.16106102346946  -2.93687769730622
N  1.38137130580870  -2.10535936138083  -2.93480875784546
H  1.22306611535866  -2.70554391546501  -3.75869473825248
H  2.04354637249747  -0.17275929269922  -1.27979671747717
H  -2.39555750620126  -0.13030892129882  -3.56964884643551
Cl  -5.02105081249344  0.67266695731353  -3.54246249165520

