%nproc=8
%mem=4000MB
#opt=(noeigen,calcfc,ts,recalc=5,maxcyc=200) freq B3LYP/SVP em=GD3BJ

ts-5640.gjf

0 2
H  -2.58620785533198  1.84621078916217  -0.84112484825129
O  0.54861743030884  2.78546007541454  -3.98105217464894
H  0.62106918918271  2.61801847952751  -4.94013473724887
O  -2.21935148830804  0.06912921559837  -3.35439831806554
Cl  -3.89739011095783  1.85773885484667  -5.29572056515574
C  -2.47394636150981  1.31635880614441  -2.96078816670200
C  -3.92525025379683  1.77470921773530  -3.11115650146373
C  -1.94073676149484  1.09155123886857  -1.41967214209015
C  -4.80563230531877  0.89540585062010  -2.35585522309127
H  -4.08242535896984  2.84704748611638  -3.05279261285406
C  -2.50928867632263  -0.22434404213445  -1.90216741388580
C  -4.11528313052867  -0.12190749885782  -1.70676584788254
H  -5.89262138264415  0.97850265773573  -2.30813883392544
H  -2.00722789405894  -1.10157738996981  -1.57893708330700
Cl  -4.31362536272905  -1.37111477646243  -0.49181202691729
C  -0.62003133160115  2.92614133396069  -3.17075736414755
O  -0.45723763334629  3.53719289833831  -2.16662537562443
N  -1.49062156460382  1.98502725097657  -3.59699951980166
H  -0.91029585607606  1.12719561465162  -1.31971371692987

