%nproc=8
%mem=4000MB
#opt=(noeigen,calcfc,ts,recalc=5,maxcyc=200) freq B3LYP/SVP em=GD3BJ

ts-5660.gjf

0 2
H  -3.40296259294288  1.40940124751386  -0.67618301338099
O  0.35986750788359  3.40282032476036  -3.50549836381792
H  -0.09299910803045  3.20360270168167  -4.39003194499684
O  -1.86039718628799  0.09364139202532  -2.96889166390547
Cl  -4.57049913243961  2.02488596098931  -5.08385523517364
C  -2.26621522740801  1.45924491726696  -2.72124120625903
C  -3.74120363250402  1.67468381305980  -3.27254968636987
C  -2.38931640959562  1.21922180515040  -1.03871909550317
C  -4.43674450821105  0.41945429120093  -2.89610526271071
H  -3.98501978145889  2.59487176768914  -2.76627141831247
C  -2.38599473489011  -0.24710860510435  -1.58988922973161
C  -3.90579021824407  -0.29924400546043  -1.77709736965997
H  -5.21947593131290  0.25965199938733  -3.60136562562666
H  -1.68555738049523  -0.87549738117599  -1.13934973956548
Cl  -4.89057094114312  -0.85940965271187  -0.48431436210319
C  -0.41447383360353  2.79674454181676  -2.64857504625402
O  0.05782414818132  2.66489210273694  -1.51376258410859
N  -1.58912103809398  2.39963476036232  -3.22751241781362
H  -1.57671188121587  1.84260462311052  -0.59430385866007

