70
 energy: -143.123907314678 gnorm: 0.126035493442 xtb: 6.6.1 (8d0f1dd)
O    -2.02007270    -1.48986426     2.18901420
H    -2.66088439    -0.93717673     2.63983001
H    -2.40060877    -2.04845288     1.50893352
O     0.23884448     1.82611647    -3.21142640
H     0.77660989     1.03239180    -3.22360480
H     0.76362567     2.42949407    -2.68239120
O    -4.05051990    -0.14248916     3.28895613
H    -4.55889988     0.02516724     2.49348159
H    -3.73704140     0.66592198     3.69827387
O     2.04110848     1.75033059     3.61101728
H     2.25696043     0.81616176     3.60232804
H     2.38758142     2.09226061     4.43707952
O    -0.61831701    -1.20319448    -0.70362473
H     0.23257463    -1.54159011    -0.98789751
H    -0.75192255    -0.33864406    -1.09610434
O     1.04431393    -2.80605444    -2.17500190
H     1.09248701    -2.14925953    -2.87187906
H     1.72848067    -2.84002907    -1.50410619
O    -2.52625780    -3.20003053     0.12090017
H    -2.10259889    -2.54844809    -0.44060753
H    -1.82932260    -3.84509393     0.25323733
O     0.58912448    -1.00553835    -3.96195519
H    -0.35059458    -0.95141618    -3.77937078
H     0.50413144    -0.86827494    -4.90708558
O     0.85180089     3.78125185    -1.54100788
H     0.89215681     3.11503957    -0.85262485
H    -0.03797075     4.12645514    -1.63308895
O    -2.43738967    -0.76894778    -3.61841791
H    -3.01625673    -0.13597550    -4.04690052
H    -2.60889014    -1.69776199    -3.78343321
O    -2.33829676     2.12622131    -3.58012137
Cl    -3.15696798     2.30778625    -2.09756485
H    -1.38688686     2.06235888    -3.43408299
O     3.05263052     3.42126499     0.60643159
Cl     1.95054834     4.68215926     0.91743828
H     2.59742571     2.63339719     0.92680639
O     0.54476243    -2.20441534     3.04081791
Cl     0.69907787    -1.58872731     4.62141236
H    -0.36847447    -1.97797884     2.82795410
O    -0.88734453     1.85664309     4.04778774
Cl    -1.53682827     3.21446298     4.84506864
H    -0.08677157     2.14627244     3.59415150
C     4.62090194    -1.90658838    -0.86236886
C     3.90670727    -2.62128073     0.09149882
C     2.99032701    -1.96609833     0.89191889
C     2.60414329    -0.66462086     0.55441402
C     3.31399354     0.01525867    -0.43491510
C     4.35218806    -0.57142006    -1.14931133
H     4.05478538    -3.68174500     0.24745844
H     2.44210281    -2.47201590     1.67899779
C    -1.59751630     1.75935350     1.18837369
C    -1.28463821     3.11057847     1.02051700
C    -2.89983818     1.32536476     0.92480457
C    -2.26532903     4.09009633     0.92853962
H    -0.27252004     3.48197362     1.02747906
C    -3.83312116     2.33775642     0.77279025
C    -3.59440306     3.70010143     0.87820504
H    -1.98274671     5.12787137     0.80810120
H    -4.84882072     1.99180673     0.63327582
Cl     5.63987635    -2.79745367    -1.94553961
Cl    -4.98131480     4.75702768     0.83345392
N     1.46335076    -0.18927306     1.21937416
H     1.08293235    -0.90145148     1.82256443
C     0.59934002     0.81325837     0.80799786
O     0.96001309     1.66176117     0.02749014
N    -0.63703082     0.75692120     1.42156674
H    -1.07970195    -0.09969853     1.71498278
H    -3.18182396     0.30544070     0.68467335
H     2.93568482     1.00934764    -0.60994282
Cl     5.24164289     0.17572062    -2.43616812
