%nproc=8
%mem=4000MB
#opt=(noeigen,calcfc,ts,recalc=5,maxcyc=200) freq B3LYP/SVP em=GD3BJ

ts-413.gjf

0 1
Cl  2.18653900500657  1.41567616139691  -0.88323462479987
C  3.58030489188812  0.50446070432943  -4.37544703798016
C  2.62786434121178  1.30962375025278  -5.07279403443527
C  2.03972717523015  2.52175540104081  -4.61867456306800
C  1.99567304226254  2.63165334613160  -3.23494750542533
C  3.12636020652648  1.97044622779967  -2.51632913280362
C  3.95012036646209  0.89401742226960  -3.12798955712465
H  2.46798310836495  1.01448937518473  -6.09904554920567
H  1.43679946445966  3.21227969878249  -5.20060521589179
C  -2.07702084686831  2.40890972162744  -3.35122603214592
C  -2.45694339725973  2.05356423924318  -2.05097686780940
C  -3.08618835411630  2.42031817475739  -4.31805654199954
C  -3.71411774021765  2.49879479888351  -1.71453270859816
H  -1.69915013707562  1.81363657534313  -1.29574797513172
C  -4.40508281268967  2.59882692853400  -4.03425867217878
C  -4.76981233036591  2.67496396282366  -2.69974829148530
H  -3.95236228880039  2.32388605664633  -0.64555674413445
H  -5.23994741462835  2.56932082809227  -4.70716607429318
Cl  4.75690330584373  -0.57948795549513  -5.11848445898124
Cl  -6.36936191283062  3.15688286025051  -2.25407728725101
N  1.17320148303904  3.38484517778747  -2.55503007907667
C  -0.07988215808771  3.71840722606379  -2.98525247475568
O  -0.74034001656718  4.67939985576425  -2.71785902948727
N  -0.84247326503948  2.78585094341544  -3.74119120172399
H  -0.67418503559257  2.62288712112329  -4.73161215231291
H  -2.72004165367540  2.81572019586685  -5.28144611015188
H  3.74239949613333  2.78904946568400  -2.09197383985183
Cl  5.14121021469438  -0.07758743190917  -2.16931867126901

