%nproc=8
%mem=4000MB
#opt=(noeigen,calcfc,ts,recalc=5,maxcyc=200) freq B3LYP/SVP em=GD3BJ

ts-423.gjf

0 1
Cl  2.32953213965139  0.91898471125600  -1.05147615070238
C  3.82509936770406  0.36084031964028  -4.35143864469452
C  2.76461935121256  0.86332664943543  -5.14601026164847
C  1.82430769663430  1.75177112790482  -4.73747600357054
C  1.85370704066054  2.21038468698790  -3.38676924582737
C  3.07753737662806  1.82849048548095  -2.62705538649184
C  4.07915617340778  0.96762459570761  -3.11965497581244
H  2.70746123493137  0.49219642088580  -6.14518159052505
H  1.12175011445545  2.15612692285886  -5.44269175685556
C  -2.41252730522722  2.70363460018882  -3.53697900783891
C  -2.84854159306197  1.66093355203995  -2.73656300411382
C  -3.34179178347239  3.58938418561034  -4.20498168963755
C  -4.21816821902240  1.59350757223023  -2.37955371566464
H  -2.12332418692618  0.91324713863472  -2.43063088440745
C  -4.57612383014455  3.66877518298553  -3.59502540266769
C  -5.03356847851877  2.70523431606480  -2.75648970092125
H  -4.68281336935667  0.77008826560726  -1.85408101326555
H  -5.26079999632504  4.50069185016691  -3.74867424438965
Cl  4.71412917604137  -0.73620877716457  -5.26172084396393
Cl  -6.56543754659209  3.07506077783947  -2.17175837255896
N  1.24425625905394  3.29131585440791  -2.94072781929409
C  -0.05697392968151  3.45797693789967  -2.92865580751646
O  -0.53614807456402  4.30441213251803  -2.16605264222694
N  -0.99000734705344  2.76519813204115  -3.64844639329823
H  -0.71061380961174  2.55554839842167  -4.60883451113119
H  -2.96524692279514  4.26105696486774  -4.93934375194036
H  3.45196871859778  2.66553468263534  -2.08314021194773
Cl  5.44772363552651  0.73809794165440  -2.26646185652533

