%nproc=8
%mem=4000MB
#opt=(noeigen,calcfc,ts,recalc=5,maxcyc=200) freq B3LYP/SVP em=GD3BJ

ts-453.gjf

0 1
Cl  2.41092178753812  -1.35144914684178  -1.75318177549432
C  4.05492093237300  0.17042218582412  -4.47564574961307
C  2.76286315631376  -0.42885938147740  -4.47961625493645
C  1.58845608802460  0.20394810199589  -3.98297861548681
C  1.84541504429384  1.55506970309965  -3.48793506033176
C  3.11319529117815  2.17410549944512  -3.55571350136645
C  4.22498005551764  1.44148520337560  -3.93463446713169
H  2.64050320062845  -1.38257331304641  -4.94171588743671
H  0.60665939969525  -0.21636753999840  -4.04528431443395
C  -2.69725713310683  2.93660841176659  -3.20388167043205
C  -3.72400747688310  3.51975730659096  -4.02013304451922
C  -3.07996626100340  2.52224604336861  -1.94048406273819
C  -5.07558588340016  3.35184953570193  -3.87696924185372
H  -3.38062601417709  3.85417920415490  -4.98478356172088
C  -4.43771685951156  2.60174934846986  -1.69009649781050
C  -5.43383353499194  2.92841328297838  -2.65403163273524
H  -5.77375902617419  3.71544746389282  -4.62821990006405
H  -4.74536270277946  2.51244184597253  -0.64986085777869
Cl  5.37223042723146  -0.81065502844938  -4.53388052418722
Cl  -7.12835682947478  2.54531661641147  -2.28059181232327
N  0.82916967247786  2.29661369298205  -3.13722048586782
C  -0.23774755553826  2.88751670154563  -2.73517080880586
O  -0.45498337103624  3.36005309264450  -1.62785486297247
N  -1.44406149364883  3.06453431285575  -3.73661426532905
H  -1.46091112612766  3.38497988031192  -4.70091262322471
H  -2.39392153640159  2.06890945876452  -1.26792225412675
H  3.28196422220384  3.13308350424901  -3.14944995075974
Cl  5.84491756713458  2.00098526845697  -3.80356979894937

