%nproc=8
%mem=4000MB
#opt=(noeigen,calcfc,ts,recalc=5,maxcyc=200) freq B3LYP/SVP em=GD3BJ

ts-463.gjf

0 1
Cl  2.42642884615728  -2.32885783213159  -1.66965163345199
C  4.21449718790965  0.07514797797060  -3.97641841846482
C  2.99366735446185  -0.54979619814994  -3.81534613840999
C  1.80204033758415  0.14266510145070  -3.75592796065685
C  1.79253766791580  1.55524846189691  -3.60894932442297
C  3.02956097560266  2.15005358163664  -3.81143404884346
C  4.20401160985419  1.47701267864730  -4.01655017069669
H  2.94051039832539  -1.64738695886644  -3.86497595617477
H  0.91020676840416  -0.47141456637697  -3.81273335308527
C  -2.71205700237200  3.09053468883159  -3.16477046860084
C  -3.67045094051168  3.95145196847134  -3.64728561717825
C  -3.08021263624586  2.33471242122316  -1.96455700173109
C  -5.03097906421891  3.70901086713467  -3.45001258170608
H  -3.29239524619997  4.79830969472648  -4.19699265826677
C  -4.34762312786385  2.51869842211705  -1.56711364531098
C  -5.36473596282127  2.85320236256010  -2.42104812909988
H  -5.79844245852121  4.08618664810934  -4.07511540370383
H  -4.52562396726832  2.30228720075441  -0.54689039778478
Cl  5.64497722798854  -1.04053113171633  -4.42156600219410
Cl  -7.07160209667952  2.52595832361391  -2.37864633847115
N  0.72191403074161  2.27996453785070  -3.40584706001117
C  -0.20002795206091  2.73746158680992  -2.59988100197026
O  -0.05292964194208  2.77146602813943  -1.40234947067157
N  -1.31080817359995  3.27730525740051  -3.28840741930934
H  -0.97220367866044  3.87964561518463  -4.03429763572584
H  -2.36788220882610  1.84820791789193  -1.32668998249311
H  3.11804587321353  3.24862760336628  -3.76450311915125
Cl  5.58228685780414  2.33098714471171  -4.27491407085761

