70
 energy: -143.123169168909 gnorm: 0.109577395591 xtb: 6.6.1 (8d0f1dd)
O     0.80251014    -3.36873676    -1.35589154
H     1.54034190    -2.75650931    -1.36683981
H     0.95875443    -3.99604199    -0.64778522
O    -0.73363642     2.25104955    -3.74098682
H    -0.11175468     2.01830202    -4.43267351
H    -0.25431221     2.69828117    -3.04129386
O    -1.54400600     3.94842803     1.17064253
H    -1.96175420     4.13058202     0.32705200
H    -1.68773375     4.71317114     1.73086452
O    -0.88468716     1.91683762     3.38119798
H     0.05459420     2.07856135     3.27662771
H    -1.26654108     2.55686460     2.77796378
O    -0.90530729    -0.47968924    -2.63436436
H    -0.37182284    -0.26671419    -1.86665663
H    -1.08693930     0.34293763    -3.09222128
O     0.99105870    -1.24994343    -4.64186930
H     0.25388023    -1.24093547    -4.02882384
H     1.20273654    -2.10672803    -5.01663869
O    -2.32350766    -1.73183080    -0.36787097
H    -1.63962211    -2.12727110    -0.91125386
H    -2.82511951    -1.09661494    -0.88189913
O    -0.74672781    -2.92410807     1.96725081
H    -1.43790725    -2.82922880     1.30952208
H    -1.07432328    -2.82365822     2.86275488
O     1.20548868     2.67515552    -1.98979603
H     1.44968448     1.95913155    -2.57887724
H     0.82557342     2.34916866    -1.17203398
O     1.96678033     1.68503715    -4.87464781
H     1.52124459     1.21623718    -5.58250572
H     2.80921386     1.84832294    -5.30241152
O    -3.38519081     3.37642027    -3.99626413
Cl    -4.74420500     2.35473100    -4.09821349
H    -2.57264084     2.91907964    -4.24362726
O     1.22814550     3.89998397     2.10235416
Cl     2.15450162     4.07309522     0.68353018
H     0.36742469     3.94521331     1.66910932
O    -0.59480870    -0.73622734     4.38224822
Cl     1.05708389    -1.15019336     4.41460318
H    -0.67558518     0.21429369     4.52567436
O     3.17558476     3.15435871     3.95739263
Cl     2.41142032     2.09685527     5.05233556
H     2.44928081     3.50749091     3.42978644
C     4.82678528    -1.32666378     0.39213196
C     4.21303292    -2.22257602     1.25894898
C     2.88658537    -2.00562079     1.58012840
C     2.10257809    -1.02795922     0.95851657
C     2.69680822    -0.12728957     0.07501208
C     4.05891152    -0.29728086    -0.14448512
H     4.69044086    -3.05956561     1.75125475
H     2.40754838    -2.61823874     2.33591824
C    -2.56108494     0.65896313     1.26097789
C    -2.84126023     1.25796445     0.03029650
C    -3.58675008     0.60949731     2.20935614
C    -3.96165418     2.05515320    -0.16687610
H    -2.06307169     1.14555532    -0.70737064
C    -4.80096919     1.23152976     1.96891924
C    -4.94590777     1.97285234     0.80551210
H    -4.00360874     2.68116693    -1.04873880
H    -5.65495607     1.07346338     2.61429703
Cl     6.50974747    -1.38709512    -0.01920095
Cl    -6.41894763     2.88643046     0.61019571
N     0.74298323    -0.92984438     1.29229830
H     0.29438746    -1.68313892     1.78935352
C    -0.13890934     0.04972414     0.86389990
O     0.01592487     0.79992884    -0.07015234
N    -1.34852169    -0.00413868     1.52887372
H    -1.20988520    -0.34162513     2.46841130
H    -3.34950970     0.16506051     3.17040608
H     2.13017498     0.70500757    -0.30992061
Cl     4.67244571     0.75581912    -1.37732957
