70
 energy: -143.151770869785 gnorm: 0.109694280521 xtb: 6.6.1 (8d0f1dd)
O    -3.36867995     0.02132882     2.29247072
H    -3.96359934     0.75332607     2.46448516
H    -3.84927119    -0.61290421     1.75756959
O    -5.58464727     0.75471448    -1.64263837
H    -6.21615695     1.09745659    -2.27751015
H    -4.76423340     1.25090748    -1.64982554
O    -0.62464763     0.36200349     3.11557769
H    -0.08119749    -0.25776574     2.62579544
H    -1.57133009     0.24368244     3.02002235
O    -4.56626233    -1.19000120     0.10744959
H    -5.00554273    -0.56371985    -0.47060177
H    -3.77633739    -1.42735354    -0.38144806
O     0.79971266    -0.08408302    -2.58160452
H     0.59394573     0.27863170    -1.71821748
H     1.73898770     0.02358526    -2.74131692
O     1.94535273    -2.28589435    -0.60752207
H     1.39057727    -2.31255835    -1.38909177
H     1.99568346    -3.19337156    -0.30208567
O    -0.22678374    -2.49004002    -2.15372384
H    -1.15237512    -2.73995321    -2.16642975
H    -0.12686380    -1.55222109    -2.32649609
O    -2.90667425    -2.96687098    -2.79973063
H    -2.84407876    -2.16203153    -3.31708296
H    -3.65808908    -2.97024348    -2.20416292
O    -2.20253481     0.14740724    -0.25934805
H    -1.35811943     0.59315658    -0.34657651
H    -2.43166615     0.12987144     0.67152742
O    -2.57255674    -0.45188710    -2.82251344
H    -3.31625003     0.12699135    -2.99903076
H    -2.22942147    -0.32778996    -1.93583628
O    -1.11308746     1.87798471    -3.44508406
Cl     0.39322152     2.58633368    -3.80624496
H    -0.85460921     0.95170433    -3.36905734
O     0.24614763     3.19988034     4.18305521
Cl     1.61685714     4.09698006     4.64945866
H    -0.02360613     2.47881590     4.76433491
O     1.03364768    -0.93418651     1.42314075
Cl     1.58373093    -1.82297816     2.76799080
H     1.28981821    -1.44855651     0.64829477
O     0.68506607     0.88559675     5.41590038
Cl     2.23547379     0.60922092     4.76704513
H     0.12809810     0.39506152     4.79966184
C     4.88763677    -0.73043101    -0.18184102
C     4.86244982    -0.24525527     1.11996267
C     3.87465787     0.60940729     1.57108133
C     3.01723316     1.21411570     0.64585616
C     3.21697566     0.88400056    -0.69430152
C     4.08201606    -0.11167103    -1.13332876
H     5.55976797    -0.71277885     1.80260759
H     3.82404134     0.79988846     2.63745389
C    -1.55187434     3.02437489     0.82957779
C    -1.93457480     3.18560038    -0.50437283
C    -2.61388843     3.06425913     1.73753843
C    -3.21446183     3.50933149    -0.93652664
H    -1.10544152     3.02500241    -1.17453128
C    -3.91127743     3.31807688     1.32350861
C    -4.23787357     3.55803817    -0.00307954
H    -3.35201628     3.70959135    -1.99118772
H    -4.70012772     3.37313947     2.06207100
Cl     5.74202193    -2.18469185    -0.58229092
Cl    -5.88289600     3.88487233    -0.48235042
N     1.98141786     2.09529786     0.99246805
H     2.06629853     2.59666343     1.86263045
C     0.67632184     1.96118402     0.54575542
O     0.28462996     1.20151842    -0.30789557
N    -0.21397890     2.79049209     1.19987028
H     0.05337233     2.94981421     2.15850882
H    -2.46567459     2.79106886     2.77716520
H     2.60913944     1.46403382    -1.36962485
Cl     4.13888574    -0.52497088    -2.81597506
