%nproc=8
%mem=4000MB
#opt=(noeigen,calcfc,ts,recalc=5,maxcyc=200) freq B3LYP/SVP em=GD3BJ

ts-4501.gjf

0 2
O  3.54137125004793  -3.06787813223864  -3.50017476740878
Cl  -0.96694015613238  -2.39740269900438  -4.04938901957777
H  3.89137211903746  -3.18835435629335  -4.40644466406556
C  -4.06291018791142  1.28341733871505  -1.70002447453152
C  -2.81572371354016  1.83162828302331  -1.20862738922843
C  -1.70850678489441  1.01218825169692  -1.01943012154115
C  -1.76095273187689  -0.27158212669521  -1.57925420636501
C  -3.00268534020104  -0.84901131072535  -1.82875874316293
C  -4.11830858207738  -0.07520003520793  -1.99579531471036
H  -2.78682794147499  2.93528077260988  -1.01414009899195
H  -0.81763588687386  1.35229922451858  -0.45329830790848
C  2.16132899082294  -2.86762176210860  -1.14238839742528
C  3.37437032056602  -4.32168953033355  -2.96245829116801
C  2.02578123300638  -2.96238228643018  0.28755804892362
C  2.85740898149048  -4.00736643226827  -1.59357782548415
C  2.59925333979638  -4.08898059408479  0.61299688680289
C  2.99525045500387  -4.86492684736043  -0.51336358341959
H  2.79364981578337  -4.33145335495977  1.65121561921031
Cl  -5.27569545053659  2.29633323594268  -2.22667297082288
Cl  2.20737295202797  -6.56332025780553  -0.81189543764465
N  -0.58329243744671  -0.98270521287429  -1.55039824494140
C  0.48710026434774  -1.29208776709147  -2.04132128505306
O  3.71287534327196  -5.35714640781803  -3.36496073029226
N  1.43517212604648  -2.13683733666694  -2.01076396474296
H  1.76971202352874  -2.38563826628588  -3.01092473571396
H  1.67936186182837  -2.12059588394336  0.84736528689499
H  -3.05532108985776  -1.87997365578523  -2.14313349669239
Cl  -5.68085492195122  -0.53223704402467  -2.80159150383565

