70
 energy: -143.138445730648 gnorm: 0.113195378232 xtb: 6.6.1 (8d0f1dd)
O    -2.46549155    -1.28977157     2.80705726
H    -2.47077364    -2.11490664     3.29538321
H    -2.94460422    -1.56039598     2.02184890
O    -2.01112530     0.17334028    -1.04236990
H    -1.65593002     0.70626819    -1.75592646
H    -2.91385818     0.49449168    -1.00668808
O    -0.21422726     0.04644124     3.16684440
H     0.19892738    -0.62685302     2.62341390
H    -1.15286487    -0.12522087     3.26081212
O    -3.61870931    -2.09917071     0.42666477
H    -3.81230504    -1.27210892    -0.01811434
H    -2.97811398    -2.53646417    -0.13702885
O     0.80808774    -2.14270938    -2.44442717
H     0.83718240    -1.25359465    -2.80215289
H     1.65553837    -2.50574907    -2.18104963
O    -0.91619507    -2.04748333    -0.29099642
H    -1.34200492    -1.20070446    -0.43587398
H    -0.46141320    -2.10862253    -1.13288412
O    -1.43505979    -3.12807183    -3.34727960
H    -0.51948547    -3.39528026    -3.44556868
H    -1.87079714    -3.81178147    -2.83540786
O    -3.79182345    -2.05697883    -2.73035430
H    -3.79313914    -1.64584897    -3.59655790
H    -2.84295432    -2.06189222    -2.59265990
O     1.43350736     0.77219650    -3.67876201
H     1.58982762     1.31199328    -2.90189522
H     0.73662463     1.08145962    -4.26018148
O    -4.60996334     0.52237070    -1.12388025
H    -5.23902465    -0.19989436    -1.16807743
H    -5.06327387     1.34446456    -1.31884063
O    -0.72187770     2.10845250    -2.83763129
Cl    -2.28011598     2.79396556    -2.78170694
H    -0.40184920     2.40830460    -1.97841253
O     1.68832072     4.50355268     2.17774950
Cl     2.17101574     5.24718593     3.63211526
H     1.54276927     5.20867763     1.53572094
O     1.17574485    -1.46516259     1.31868419
Cl     1.67281738    -2.87945395     2.12730194
H     0.47105520    -1.72325876     0.71256128
O     1.49379567     1.35967278     4.49240399
Cl     0.68955085     2.36553041     5.60712438
H     0.84529971     0.74978861     4.12080965
C     5.07399454    -0.87471331    -0.09578243
C     4.94948586    -0.38810174     1.19975973
C     3.86829611     0.37570437     1.59639305
C     2.90028426     0.83131093     0.69513462
C     3.04853104     0.33959507    -0.60145093
C     4.04540509    -0.55359780    -0.97675130
H     5.65033811    -0.73296903     1.94856387
H     3.77115270     0.49146765     2.67024480
C    -1.55393082     2.91333035     1.21675260
C    -1.85075395     3.94970603     0.32810249
C    -2.66769727     2.32974303     1.82733210
C    -3.12309227     4.24138886    -0.14702476
H    -1.08313869     4.60707970    -0.04738746
C    -3.95735826     2.56110367     1.37754419
C    -4.16597641     3.48492976     0.36408162
H    -3.30932982     5.04085169    -0.85236863
H    -4.78390033     2.08215137     1.88570162
Cl     6.45444738    -1.84961923    -0.48193932
Cl    -5.74083150     3.62521001    -0.37264955
N     1.83727505     1.62593352     1.15133798
H     1.92593569     1.78631712     2.14238347
C     0.70204786     2.08217819     0.50025092
O     0.56450923     2.16211824    -0.69721603
N    -0.24705115     2.43924522     1.43831688
H     0.02949909     2.18363041     2.37321212
H    -2.43115251     1.69759329     2.67695399
H     2.37245841     0.59380180    -1.40161953
Cl     4.13161591    -1.19522260    -2.58492877
