%nproc=8
%mem=4000MB
#opt=(noeigen,calcfc,ts,recalc=5,maxcyc=200) freq B3LYP/SVP em=GD3BJ

ts-4233.gjf

0 2
O  3.89601312064821  -5.02350152786638  -3.42027960028818
Cl  -1.64056880703350  -4.05220063291251  -3.40017600193042
H  4.23480872863841  -5.47981197737440  -2.69578034649305
C  -5.35810713593477  -1.66629910957117  -1.12561418840866
C  -4.41345614984394  -0.72263509670385  -1.23301730324411
C  -3.08277221890085  -1.06268496623574  -1.01527945945024
C  -2.61265936823067  -2.38009747513363  -0.94657624926312
C  -3.62059138928024  -3.29928519686346  -0.91132046972241
C  -4.96157218936649  -2.99355855320886  -0.97964356506952
H  -4.75699981183219  0.28090877722566  -1.32639725206724
H  -2.41601983988605  -0.26835524772003  -0.72453806433475
C  1.48591401078700  -2.91096004224921  -1.74358307769776
C  3.00361089135763  -4.08440747569317  -3.24284056826854
C  1.42020729017409  -2.85552880519595  -0.34213102464337
C  2.69183569092621  -3.62566590081880  -2.03079379666041
C  2.63631268659437  -3.47648851983641  0.19545784724978
C  3.37283937885670  -4.00867553860112  -0.80048927305381
H  2.81257295645131  -3.59068160354559  1.25966906975607
Cl  -7.00160090995602  -1.19937587993738  -1.52423676375648
Cl  4.74903724879432  -5.11476322182138  -0.79909937719952
N  -1.23070630535697  -2.60599133545818  -1.09814196350706
C  -0.75711772364566  -3.00835209241657  -2.29771249242368
O  2.28835561867543  -3.80627911801106  -4.31791620013280
N  0.49521913244759  -2.82099769047064  -2.65789321478525
H  1.79077663146726  -3.00335943191432  -3.83464966600436
H  0.54641807821054  -2.40668513019039  0.14077223928975
H  -3.45057505640951  -4.35854751856614  -0.95898544527173
Cl  -6.07057326304364  -4.33321664336004  -1.56152222946906

