%nproc=8
%mem=4000MB
#opt=(noeigen,calcfc,ts,recalc=5,maxcyc=200) freq B3LYP/SVP em=GD3BJ

ts-4263.gjf

0 2
O  4.22540827368227  -3.69042784270097  -3.69106889677342
Cl  -1.47527116166069  -3.97252142002278  -3.68378268555947
H  4.88997201501331  -4.43414780411779  -3.87885391497593
C  -5.63143600658601  -2.00166514644073  -1.08533919165802
C  -4.75694165093798  -1.36195494483882  -0.16710265405969
C  -3.40127365435144  -1.60880826359145  -0.31391990267284
C  -2.94585379321521  -2.41562256429595  -1.37296940601909
C  -3.88588692441420  -3.13179063676370  -2.21902241505868
C  -5.22249041040601  -2.88785980786849  -2.00070691795494
H  -5.23072562148375  -0.60976186706326  0.43359363178083
H  -2.78007973988792  -1.34997378888949  0.52911396470150
C  1.54456055200280  -4.01110061764763  -1.22371559410068
C  2.98576549491500  -3.94213389931887  -3.08084001381938
C  1.57154565268948  -4.40308405635006  0.04613303465303
C  2.83970364237653  -4.36904067601858  -1.77510190853463
C  2.74711486082818  -5.08203517341976  0.43257096947405
C  3.60289171660972  -5.00380380116102  -0.69822751984391
H  2.85948048674804  -5.26160323555621  1.50627267295295
Cl  -7.26971677949476  -1.61742790363170  -0.66097532939366
Cl  5.27923295988230  -5.49975647714352  -0.99322478095221
N  -1.60737644885645  -2.73624377154751  -1.27060419096976
C  -0.85213933672418  -3.41682149676683  -1.95253506353377
O  2.03411186409905  -3.79138768750215  -3.88359562637004
N  0.48010824288703  -3.49745375048557  -1.93596592381626
H  1.01798949528089  -3.60555580292241  -2.97864569849717
H  0.77501174262915  -4.39316979583161  0.76140334197283
H  -3.56814798920880  -3.89501064103957  -2.90989595972902
Cl  -6.42871052885449  -4.10881851109657  -2.62628788749817

