70
 energy: -143.137344215707 gnorm: 0.111617799514 xtb: 6.6.1 (8d0f1dd)
O    -3.64413613     0.10349851     2.09472396
H    -4.23922703     0.66413865     1.59383728
H    -3.99884578    -0.78487916     2.02911239
O    -3.94592623     0.48596684    -1.09289781
H    -4.25053958     1.38755062    -0.97586710
H    -3.15678030     0.24366397    -0.60517238
O    -0.59335569     0.48511500     3.12485085
H    -0.23874002    -0.27647384     2.66271583
H    -1.53369088     0.43043456     3.30406617
O    -3.67229564    -2.29177024     1.00486412
H    -4.27922592    -2.14773751     0.27669574
H    -2.85610033    -2.31365961     0.50218675
O     0.94924347    -0.57043637    -2.41674968
H     0.73243878     0.29970037    -2.07734289
H     1.52258904    -0.46450562    -3.17792748
O     1.34972850    -2.19764792    -0.26649393
H     0.55333315    -2.70186742    -0.44215021
H     1.48040802    -1.59459120    -1.00037737
O    -1.05583599    -2.94999806    -2.14429227
H    -1.28338124    -3.46184865    -2.92247577
H    -0.53951666    -2.18746135    -2.41129546
O    -4.53046548    -2.13960421    -1.48439309
H    -4.58766245    -1.23407113    -1.79435521
H    -3.59559637    -2.31613016    -1.60353522
O    -1.83936828    -0.52075186     0.22924709
H    -0.96887409    -0.22475729    -0.04271924
H    -2.05559768    -0.29912771     1.13669703
O    -2.21991351    -0.98688858    -3.74993014
H    -2.89431786    -0.47368148    -4.19841157
H    -2.40204167    -0.96363169    -2.80885270
O     0.01341241     2.23459243    -3.83161247
Cl     0.77498078     3.35464310    -4.86440594
H    -0.21546452     1.42696114    -4.30693706
O     0.06343525     3.49853314     5.10245736
Cl     1.22378409     3.85879707     3.90873833
H    -0.27381073     2.59479060     5.09237412
O     0.36327036    -2.02486923     2.05208912
Cl     1.32942378    -2.42286992     3.39719389
H     0.89721834    -1.98043366     1.24989765
O     0.63276316     0.81185739     5.58222702
Cl     2.27947729     1.05697181     5.22248777
H     0.31058505     0.43504080     4.75470144
C     4.85495785    -0.64252200    -0.54457809
C     4.50252073    -0.85076068     0.78325753
C     3.45913349    -0.20576276     1.41966134
C     2.72417974     0.76729422     0.73417313
C     3.09937318     1.02249067    -0.58453848
C     4.06297042     0.26566548    -1.24111880
H     5.08178498    -1.58377715     1.32912818
H     3.20678249    -0.44685631     2.44639813
C    -1.65425984     2.94106483     0.75492125
C    -1.92446175     3.00153311    -0.61446256
C    -2.60421078     3.43058791     1.65593044
C    -3.19159217     3.41710613    -1.00349872
H    -1.11629830     2.77166351    -1.29003479
C    -3.85880503     3.87212828     1.26850596
C    -4.15851702     3.79062561    -0.08338626
H    -3.42145149     3.47712054    -2.05938611
H    -4.56547308     4.34789740     1.93563044
Cl     6.04065887    -1.67609486    -1.27330915
Cl    -5.76413736     4.13119579    -0.67382272
N     1.67447444     1.38388059     1.43236733
H     1.81355052     1.57952881     2.41121073
C     0.51625894     1.67826263     0.73044827
O     0.30997573     1.13666199    -0.32943396
N    -0.38528183     2.58648384     1.25065204
H    -0.19908545     2.89218815     2.19284303
H    -2.29860842     3.32413829     2.69164263
H     2.55366937     1.83981256    -1.02743501
Cl     4.39868036     0.48527422    -2.92765972
