%nproc=8
%mem=4000MB
#opt=(noeigen,calcfc,ts,recalc=5,maxcyc=200) freq B3LYP/SVP em=GD3BJ

ts-64.gjf

0 1
O  0.17950750919820  -4.27101547376441  -1.50463766402202
Cl  -0.23182605702885  -4.70371870236791  -3.37558463276872
H  -0.20143024893511  -5.14409983453136  -1.17724119351491
C  -5.43449939020382  -0.74414223337377  -3.51566494511191
C  -4.61803158224397  -0.78924462086705  -4.64956749423020
C  -3.27662690616793  -1.02043279891134  -4.55332081968819
C  -2.66392206198871  -1.23055667860600  -3.29948315272999
C  -3.46707489732877  -1.30206089512717  -2.18663166758231
C  -4.86907939125068  -1.12071718757729  -2.28366479294551
H  -5.09741535060275  -0.87251666464554  -5.61212002574362
H  -2.69366625010343  -1.17056031485692  -5.35586806814432
C  2.24456218235100  -1.24308850328027  -3.36841306930243
C  2.82630146187377  -0.35845387383332  -4.26701608941117
C  3.08540585155875  -1.49351808822539  -2.21926305106542
C  3.89607160277008  0.42744662732448  -3.94322658588320
H  2.32281176239719  0.01920005029322  -5.13446229804235
C  4.31163288376800  -0.83902201167669  -2.01150203586757
C  4.66900132321702  0.25082356851330  -2.81586078242032
H  4.10277259353875  1.27599594930500  -4.55482244374499
H  4.96430068620986  -1.08126045592214  -1.12399168825981
Cl  -7.18603075539532  -0.49706273359064  -3.75705971057308
Cl  5.82800913067029  1.32111237667058  -2.03185568566226
N  -1.29120341086676  -1.44491277410106  -3.24717892755161
H  -0.90824784714699  -1.63878210230686  -2.34618335285415
C  -0.20312508779929  -1.29046135567863  -4.14691563255275
O  -0.24722034567972  -0.97722682692125  -5.34328742145453
N  0.96020820356664  -1.80592620323029  -3.46024817605478
H  0.73777241783351  -2.50348281197127  -2.70107741437171
H  2.77871283723281  -2.24125239523560  -1.51120341681631
H  -3.00977428526383  -1.73727262779855  -1.32368086653910
Cl  -6.03561685962285  -1.45654825278301  -0.86964127610643

