%nproc=8
%mem=4000MB
#opt=(noeigen,calcfc,ts,recalc=5,maxcyc=200) freq B3LYP/SVP em=GD3BJ

ts-84.gjf

0 1
O  0.24498146016018  -3.45102318111890  -1.84071119926266
Cl  -0.83706921591892  -5.29049332220004  -2.76879216241282
H  0.89321312332853  -3.91056861333846  -1.23952885378912
C  -5.25676346909068  -0.47670514533534  -3.45633936140697
C  -4.28897517583731  0.17053324967315  -4.23315827805051
C  -2.98968687335170  -0.35458710931856  -4.14849085937082
C  -2.70951542766294  -1.56803214047477  -3.55055192357486
C  -3.72836323664626  -2.31056958796849  -2.96686947136294
C  -4.98241072916881  -1.69178531214692  -2.85369517788791
H  -4.40570064326483  1.14403127455509  -4.60753532992706
H  -2.20425398884313  0.19945278334087  -4.78833501623430
C  1.89698421070999  -1.02705183640824  -3.22539554561166
C  2.36319651941539  0.04337462722319  -4.02821113999601
C  2.69820836454935  -1.43760206657581  -2.18796162061079
C  3.51621791577966  0.72266006197678  -3.70734491902399
H  1.81374687716078  0.20064930593035  -5.01072783435396
C  3.96723695677453  -0.88589071675143  -2.05776213114988
C  4.37636381384509  0.22957570087363  -2.71134201064726
H  3.73648977428477  1.56740034864415  -4.27044459917822
H  4.65092765793201  -1.38183367025595  -1.38446570338423
Cl  -6.85214639593095  0.20651453971365  -3.39262051948481
Cl  5.84449300773399  0.83867974463969  -2.14650371335484
N  -1.48434745471342  -2.08529673580350  -3.36059926617484
H  -1.40839399906758  -2.87445647418547  -2.72462997337821
C  -0.38867345314704  -1.58675806557901  -4.12647195289096
O  -0.69314832147416  -1.25753822482345  -5.27049878637706
N  0.69756123799587  -1.68422538767614  -3.42348148162613
H  0.55747197464525  -2.65743340096687  -2.50890016179244
H  2.30855720967441  -2.06815081513933  -1.43166391742038
H  -3.57105004052621  -3.26828970408117  -2.50846798486638
Cl  -6.05251417877408  -2.61330065368317  -1.93812735424165

