%nproc=8
%mem=4000MB
#opt=(noeigen,calcfc,ts,recalc=5,maxcyc=200) freq B3LYP/SVP em=GD3BJ

ts-3527.gjf

0 2
O  -2.54154863688418  -1.24043992362431  -1.40336027115785
Cl  -0.41407023152487  0.40189947177829  -3.03697086950583
H  -3.25228195468072  -1.80940335431022  -1.77379403637435
C  3.25521462828044  -0.91098094029827  -5.37879477954797
C  2.14715475585055  -1.71132194184174  -5.62434960856994
C  1.25392022350599  -2.11361982949106  -4.72819768847266
C  1.58909264340130  -1.84579334088605  -3.38001903858096
C  2.63956391168946  -0.94105331127916  -3.10230300947606
C  3.46102352037929  -0.42689732035412  -4.14375749647271
H  2.03117894530659  -1.98051732882455  -6.65781780568206
H  0.30707987719811  -2.58491042236827  -4.93632184921554
C  0.65766614305994  -1.63461022898111  0.55621779414430
C  -1.69427825931971  -2.04327960027179  -0.88634768352271
C  0.95943868899070  -0.63533858139310  1.41097272434839
C  -0.64760324242057  -1.19413172046981  -0.05535104265472
C  -0.01522798023519  0.29447244323885  1.59006232822693
C  -1.10028261838194  -0.16006913025886  0.71469335100700
H  -0.11514694806392  1.21783035450554  2.14045910538935
Cl  3.87260653111506  -0.31890872940607  -6.87012697680443
Cl  -2.42545992054320  0.77426384935024  0.36179331268183
N  1.02324675095646  -2.48557051281923  -2.34531534449992
C  1.32706900190478  -2.84248798849486  -1.22098662625771
O  -1.82745768882087  -3.26589967231633  -0.98782074621406
N  1.14095768476491  -2.96829113681126  0.10615364036746
H  1.73276808975712  -3.55927374945533  0.68896216807271
H  1.89919964805548  -0.62599660978213  1.93477847559365
H  2.92701815340506  -0.78386631942743  -2.06943607276371
Cl  4.73368259011659  0.64276379397244  -3.76569782927331

