70
 energy: -143.154298708985 gnorm: 0.105591166358 xtb: 6.6.1 (8d0f1dd)
O    -0.20255721    -0.72713732     1.99165592
H    -0.93463127    -0.10982097     1.94342608
H     0.19524894    -0.78421718     1.12112112
O    -2.18485934    -0.42894716    -1.83536921
H    -2.09681010    -1.36760729    -2.01002112
H    -2.87298586    -0.24237738    -1.19426729
O     0.30097062    -3.19490478     3.38134492
H     0.25494937    -2.31319015     3.00744656
H     0.97239292    -3.70405201     2.92385225
O    -2.03871190     0.86112533     0.84573094
H    -1.44802600     0.72695361     0.10247655
H    -2.85001645     1.21931368     0.48128000
O    -4.37260731     1.19002009    -0.91719825
H    -5.03167143     0.54900686    -0.64502971
H    -4.31549650     1.23673139    -1.87317656
O     0.84993093    -1.31296963    -0.68661029
H     1.02820964    -1.12573843    -1.60991910
H     0.06338084    -1.85388307    -0.77656051
O    -1.94579040    -3.36738795     1.59672317
H    -1.64310801    -3.96256111     2.28482906
H    -1.73117945    -2.47845108     1.88494526
O     0.67214046    -0.29965647     4.71990171
H     0.30831247    -0.62075249     3.89294057
H     0.82268674    -1.05730711     5.28791389
O     1.04295446    -0.19548169    -3.35224134
H     1.51703523    -0.05930522    -4.17445906
H     0.91939460     0.69671406    -3.02352031
O    -1.73646194    -2.90618154    -0.96470573
H    -1.24322876    -3.68557012    -1.22664617
H    -2.11606174    -3.11206246    -0.10863603
O    -1.42675114     1.46828832    -3.64054662
Cl    -3.04131583     1.48604679    -4.18278985
H    -1.47659131     0.83319078    -2.91614792
O     1.86249876     1.90677019     3.76079664
Cl     0.76667324     3.13803621     4.19011598
H     1.44223490     1.06971203     3.99166246
O     1.86942982    -3.18792437     1.11181643
Cl     3.26923428    -3.92672869     0.48262691
H     1.65281218    -2.50636417     0.46440728
O    -3.17582336     1.48486045     3.71073489
Cl    -1.97829510     0.78754928     4.70111059
H    -2.70384195     1.57403283     2.87415261
C     5.24450170     0.00776786    -0.21910847
C     4.82266398    -0.06139276     1.10300809
C     3.71552673     0.59124320     1.61094736
C     2.87285679     1.30429749     0.75167338
C     3.28864141     1.43973586    -0.57259058
C     4.41911884     0.77600120    -1.03506059
H     5.43409067    -0.57151082     1.83565524
H     3.45518937     0.44172486     2.65299545
C    -1.45851939     3.58497298     0.45828148
C    -1.69069498     3.58641642    -0.91938679
C    -2.36398397     4.07960121     1.40132650
C    -2.92421129     4.01949424    -1.38901498
H    -0.98156080     3.26613873    -1.66565544
C    -3.58094425     4.52846277     0.91491797
C    -3.83671850     4.46797140    -0.44706691
H    -3.24989770     4.00279448    -2.42099592
H    -4.36389520     4.86730014     1.58047645
Cl     6.71602558    -0.70886199    -0.79030684
Cl    -5.42737608     4.99615243    -0.93023677
N     1.63131984     1.81842320     1.15639019
H     1.62153122     1.96679310     2.15320776
C     0.59505695     2.13944909     0.29388468
O     0.48340370     1.73226820    -0.83791546
N    -0.32366194     2.92339361     0.96443668
H    -0.38919322     2.93062943     1.97017090
H    -2.14378044     4.15117073     2.46142661
H     2.69940984     1.88212395    -1.35939670
Cl     4.87355466     0.89023485    -2.70412859
