%nproc=8
%mem=4000MB
#opt=(noeigen,calcfc,ts,recalc=5,maxcyc=200) freq B3LYP/SVP em=GD3BJ

ts-843.gjf

0 2
C  4.13952765261277  -1.65410851923953  -1.85371673991547
C  3.50074752501638  -1.29556842905350  -2.98434395938895
C  2.97701451533708  -0.06138747795421  -3.08326439802713
C  2.84859794464819  0.75326222754966  -1.90635665028600
C  3.53041464234911  0.36223070340609  -0.68538566484124
C  4.20853199557748  -0.87484845397929  -0.76306012588236
H  3.60755854078176  -1.89250232452767  -3.90855108724310
H  2.39812072954074  0.20586582999230  -3.92150937631143
C  -0.74149347038966  3.29061139710880  -0.60272716867135
C  -1.13422113888151  4.56706949396010  -0.12224185334848
C  -1.66406001895735  2.42004260371657  -1.14011160163362
C  -2.43558942907093  4.73865393784885  0.30235088681684
H  -0.35782261950768  5.09324040522953  0.41231172841436
C  -2.89350449244742  2.50611530715113  -0.59790703003615
C  -3.27739433202477  3.68586330962784  -0.00383970941173
H  -2.71210037527961  5.73680389603698  0.57204413329192
H  -3.64177988027426  1.80237322736913  -0.92932939022328
Cl  4.25646121421256  -3.29867500243207  -1.76876427370696
Cl  -4.75896613511745  4.45533913754807  0.27779026528145
N  2.03122247886080  1.75100397549713  -1.85749022291658
C  1.87237527187708  2.77430199764087  -0.95040457674731
O  2.82869818093298  3.48710232880016  -0.76137253686377
N  0.57941875638544  3.22516160841502  -0.59773537953045
H  0.91189875844009  4.15476412172697  -0.30768298126635
H  -1.31725690061462  1.51574339130698  -1.62598401509695
H  3.64670598584928  1.00983296509848  0.15736614073782
Cl  5.17376051097700  -1.47843936325635  0.53384104025969

