%nproc=8
%mem=4000MB
#opt=(noeigen,calcfc,ts,recalc=5,maxcyc=200) freq B3LYP/SVP em=GD3BJ

ts-873.gjf

0 2
C  3.97012649684368  -1.70897751149769  -1.27689521976466
C  3.13635556293350  -1.34869875588934  -2.34238614398395
C  2.82111857934087  -0.05000664490837  -2.43155964961046
C  3.26003044445562  0.98021358196341  -1.53252625824756
C  3.57883540122205  0.48656466718979  -0.17324737565307
C  4.00678985372330  -0.85385950509513  -0.16395461267395
H  2.85447852272638  -2.10185919266240  -3.09606957061213
H  2.20031612549652  0.34491009211677  -3.19407518496548
C  0.45260391829764  4.60378039383395  -0.64160384108787
C  -0.28815025371138  5.67951030112037  0.04109446143019
C  -0.16630527950588  3.35179252968431  -1.01230267660135
C  -1.53448535811722  5.44728943050619  0.55010017075405
H  0.14937222684065  6.62863885274092  -0.02170439934691
C  -1.49807396774619  3.28245101778651  -0.66274463205589
C  -2.07831807529525  4.22864457662642  0.23549299287763
H  -2.23823271922276  6.18903106567594  0.92007952594126
H  -2.14718529932808  2.52031690451695  -1.10395464098769
Cl  4.94416558589555  -3.00778497807539  -1.22281809656081
Cl  -3.64971855758181  3.87537051901966  0.87279304681705
N  2.80596646889092  2.29239623706225  -1.90545702877611
C  2.47255644494576  2.98084881957117  -2.79297175134903
O  2.13336827774603  3.91421916639358  -3.44196376907925
N  1.72284485407936  4.89083134146231  -0.83337727225785
H  2.10398063865508  5.84190926485052  -0.74950532264586
H  0.24609046967418  2.66487375545794  -1.70541766599259
H  3.20146053833557  0.95336771970611  0.70256779790002
Cl  4.33014413763954  -1.68209397182295  1.24033347459509

