%nproc=8
%mem=4000MB
#opt=(noeigen,calcfc,ts,recalc=5,maxcyc=200) freq B3LYP/SVP em=GD3BJ

ts-893.gjf

0 2
C  3.46081614893759  -1.43957165914476  -1.08514951877654
C  3.10587078902985  -1.09249591800210  -2.31813537041018
C  2.72955857318168  0.27310863757221  -2.67195354791206
C  2.84746801943590  1.24431095346127  -1.64366842671979
C  2.91569973424863  0.82025202846801  -0.26867663529090
C  3.28929485434413  -0.52750677248909  -0.02230359785092
H  2.97744547352698  -1.88179433167853  -3.04183489020664
H  2.58076047732733  0.57192016182085  -3.68700339716198
C  1.39645770481363  5.07449987652080  -0.69786652631132
C  0.31953308912144  5.96624555397743  -0.82332873721753
C  0.92733129532545  3.72277772941676  -0.30341535155736
C  -0.78028983023382  5.67264357441424  -0.05489832613997
H  0.47414098145310  6.96388447726598  -1.21506127888978
C  -0.28896921615804  3.37851051822301  0.17239958982485
C  -1.14223269117731  4.43842083212612  0.37843154841172
H  -1.41811609006900  6.49538182338422  0.23672830002474
H  -0.56163590147742  2.36235140076407  0.36527964738200
Cl  5.04047927841226  -2.56994729634941  -1.16162831231836
Cl  -2.82237084218394  4.00608670777080  0.66354164827523
N  2.69558612978972  2.55640815558903  -1.91715741975381
C  2.55549979507845  3.06748820859171  -3.01103096157442
O  2.54177139516461  3.54375637540360  -4.12989341177779
N  2.63727010110776  5.20502541043431  -0.65385277048841
H  3.05159434760013  6.10071533965441  -0.98272224069981
H  1.60876200058280  2.91458183320048  -0.53197276689608
H  3.01444728529580  1.54678170894374  0.53251070190185
Cl  3.28928893451692  -0.90368695542472  1.68043443432321

