70
 energy: -143.146856668507 gnorm: 0.120904134612 xtb: 6.6.1 (8d0f1dd)
O    -3.16846758    -1.11568552     3.02884499
H    -3.97364245    -1.61356602     3.18098461
H    -3.07752116    -0.97594335     2.08463127
O    -1.87825176     1.83057710    -1.94523052
H    -1.29355363     1.89590027    -1.18813094
H    -2.77039639     1.63292082    -1.65480319
O    -0.52272519    -0.52206841     3.95647928
H    -0.06688717    -1.05628285     3.30366595
H    -1.43500205    -0.81611568     3.98148916
O    -2.90415296    -1.42182835     0.40055494
H    -3.10980799    -0.60186246    -0.05188394
H    -1.95025045    -1.37244476     0.48403980
O     0.96964409    -1.01684176    -3.20768818
H     1.63283377    -0.46384527    -2.79089864
H     1.27715547    -1.19469387    -4.09827421
O    -0.02801047    -0.39952153    -0.45686865
H     0.40617625     0.43323765    -0.65008364
H    -0.41191755    -0.68844330    -1.28661500
O    -1.48637918    -1.86774322    -2.16326499
H    -1.49306998    -1.51151875    -3.05343172
H    -0.91631426    -2.63867826    -2.16813597
O    -4.22793140    -1.45282326    -2.54866428
H    -3.37190040    -1.73293790    -2.21990161
H    -4.11342292    -1.11431702    -3.43840461
O     0.60481729     1.71837936    -3.42202273
H     0.14035632     2.49495903    -3.73910099
H     0.32900053     1.67037386    -2.50498489
O    -4.37316884     0.49207318    -0.89086277
H    -4.42187685    -0.30226897    -1.42563975
H    -5.23671145     0.58027566    -0.48361251
O    -2.03675101     0.11043466    -4.33193903
Cl    -3.22107980     0.89549558    -5.27119772
H    -1.97523820     0.65425635    -3.53754583
O     3.03173994     3.34045819     3.69372000
Cl     2.50388483     4.95980721     3.70928912
H     2.73055750     2.83434477     4.45773927
O     1.71774726    -1.98264922     0.93348315
Cl     0.73605967    -3.28904053     1.41389448
H     1.24818893    -1.57723806     0.19473902
O     1.44984538     1.02666755     4.66015123
Cl     0.47040150     2.16905162     5.45815445
H     0.84916199     0.29733289     4.46563004
C     5.13949687    -0.67928757     0.34278491
C     4.99937931    -0.28086010     1.66654663
C     3.93068692     0.51052493     2.04243915
C     3.02651935     0.94254376     1.06635946
C     3.19605301     0.60589001    -0.27633113
C     4.30945620    -0.14382964    -0.63779373
H     5.57173086    -0.86337388     2.37642428
H     3.70979582     0.77503766     3.07065878
C    -1.33103936     2.98551687     1.32355472
C    -1.65659419     3.87661071     0.29796061
C    -2.34768893     2.44943185     2.11910085
C    -2.96857104     3.94324077    -0.15364401
H    -0.90464056     4.39241652    -0.27725771
C    -3.67238575     2.58732008     1.73801362
C    -3.93757310     3.23682035     0.54139021
H    -3.29357806     4.51000205    -1.01648077
H    -4.44317171     2.09561465     2.31672412
Cl     6.44054212    -1.72002011    -0.13613626
Cl    -5.61745042     3.22602646     0.07179936
N     2.02430703     1.84109746     1.46348244
H     2.12937482     2.14997846     2.41705887
C     0.83151633     2.19807295     0.85468607
O     0.55165365     2.00302566    -0.30413563
N    -0.01845064     2.76712744     1.78311838
H     0.19592213     2.60891466     2.75515802
H    -2.17288769     1.82113747     2.98634635
H     2.58893949     1.13431244    -0.99337216
Cl     4.65866949    -0.45405863    -2.30727187
