70
 energy: -143.139167516768 gnorm: 0.118556596988 xtb: 6.6.1 (8d0f1dd)
O    -1.32010446    -0.02904005     2.16333795
H    -1.93104418     0.11808640     2.88752335
H    -1.90662476     0.07936123     1.41261711
O    -3.05878054    -0.10449094    -0.03633209
H    -3.24642637    -1.04472441    -0.04575854
H    -2.59642332     0.10626021    -0.84944206
O     2.86868638    -2.23410893     3.32405686
H     3.76286789    -2.57293369     3.39459637
H     2.62208509    -2.22594678     2.39752593
O    -4.35056764    -0.26740469     2.28701972
H    -3.94337296     0.13299959     1.51681982
H    -5.25179111    -0.56850736     2.15867681
O    -4.03001706     1.05979830    -2.59591184
H    -4.74585075     0.44979807    -2.78251584
H    -4.03402007     1.76284985    -3.24786322
O    -0.79758932    -1.62523542    -1.00450912
H    -0.24027892    -1.70587849    -1.78055022
H    -1.56687042    -2.17990013    -1.14555200
O    -1.47053030    -2.56604641     2.26035581
H    -1.88790311    -2.58803367     3.12328914
H    -1.02804249    -1.73110043     2.09784937
O     0.56528070    -0.76120997     4.12403695
H     0.08233894    -1.54239885     4.39944457
H     1.51593971    -0.88489381     4.14095675
O     0.71996896    -1.38579277    -3.29366259
H     1.64899020    -1.58677546    -3.41961526
H     0.67779636    -0.42792360    -3.30044069
O    -3.39087216    -2.87705529     0.28375938
H    -3.83307422    -3.70190833     0.49211759
H    -2.71434235    -2.74554279     0.95035533
O     0.27715043     2.05875626    -3.61253449
Cl    -1.23829783     1.48117778    -3.09197525
H     0.54662442     2.55374641    -2.82962011
O     0.61194204     2.01437755     3.34280981
Cl     0.15944503     2.57464784     4.88634742
H     0.32538069     1.09346897     3.32288310
O     1.98427778    -2.19315284     0.31572676
Cl     2.95533487    -2.46766008    -1.05644587
H     1.09227097    -2.15364160    -0.04944284
O    -4.18298416     0.97484962     4.61750095
Cl    -2.54842478     0.70025402     5.00989580
H    -4.29870967     0.35262750     3.88946571
C     5.51099441    -0.03441366    -0.32447689
C     5.49094168     0.55767415     0.93240521
C     4.37629190     1.25844133     1.35213162
C     3.40783966     1.59110635     0.39907064
C     3.59957012     1.20871780    -0.92830047
C     4.65925260     0.40545490    -1.33357008
H     6.27467812     0.34998930     1.64896586
H     4.24390666     1.53917153     2.39119863
C    -1.20194800     3.38889886     0.26042868
C    -1.28145307     4.20090238    -0.87368186
C    -2.36602300     3.03225920     0.94715623
C    -2.52287571     4.64462793    -1.31145696
H    -0.45371130     4.45167566    -1.51736063
C    -3.62114377     3.41668656     0.50449404
C    -3.64794196     4.24696193    -0.60636473
H    -2.66379497     5.26081855    -2.18997053
H    -4.57781762     3.23570401     0.97652318
Cl     6.68935883    -1.27872504    -0.58592512
Cl    -5.25641510     4.68851523    -1.11672222
N     2.18004753     2.18878201     0.72286902
H     1.92079243     2.20632516     1.69664199
C     1.19441429     2.73566955    -0.08351514
O     1.13211971     2.98872986    -1.26305498
N     0.02731591     2.82427582     0.65016311
H    -0.10375894     2.50296084     1.59643165
H    -2.29326298     2.45502372     1.86308703
H     2.84474645     1.51675622    -1.63350868
Cl     4.72372611    -0.13504620    -2.97948963
