70
 energy: -143.148777179475 gnorm: 0.112282569324 xtb: 6.6.1 (8d0f1dd)
O    -0.91939039    -1.38634793     0.54140544
H    -0.48584339    -1.21269463    -0.29598309
H    -1.74486888    -0.90137451     0.59360432
O    -3.52796148    -1.45364759    -2.06539776
H    -3.21284035    -0.57868398    -2.29879904
H    -2.82885241    -2.08818219    -1.89821397
O     0.09769879    -1.03229308     2.88183589
H     0.67936670    -1.79134664     2.81227478
H    -0.07437156    -0.75944130     1.97890618
O    -3.76425597    -0.06778070     0.58905775
H    -3.91574520    -0.62583820    -0.17577022
H    -4.16796947     0.78912911     0.44053352
O     0.09348578    -1.58274761    -4.81064096
H    -0.23784829    -1.89036396    -5.65617577
H    -0.23440607    -2.33152736    -4.30948836
O     2.25673713    -2.39256876    -1.42246732
H     1.55894675    -1.79756048    -1.70245253
H     2.68027811    -2.65537924    -2.24154188
O    -1.57431640    -3.88557749    -0.72444096
H    -1.37723298    -3.43616788     0.09928628
H    -0.86206333    -4.50244186    -0.90195855
O    -2.17351707     0.53919919     3.08887035
H    -2.70382126     0.28231174     2.33248125
H    -1.55234722    -0.16163122     3.29459169
O     0.17609520    -0.50507629    -1.81435440
H     0.10619292    -0.44430174    -2.76869120
H     0.36157128     0.37796823    -1.49005698
O    -1.67926866    -3.49708736    -4.06591660
H    -1.97792884    -4.16401739    -3.44515515
H    -2.44453825    -2.99222411    -4.34665464
O    -2.15812198     1.37691415    -2.20702565
Cl    -2.10054613     1.51314429    -3.90387231
H    -1.33271957     1.63056106    -1.77695529
O     1.77988904     1.11999840     4.13307628
Cl     2.64283369     2.36425620     4.91302096
H     0.94405677     0.85068474     4.53237775
O     2.26366602    -3.27762303     1.26447010
Cl     2.25155751    -4.95072163     1.58346583
H     2.19076587    -3.02931510     0.33516129
O    -0.78042907     2.19725006     4.85199075
Cl    -0.99075884     3.82232818     4.38718614
H    -1.53882347     1.72471015     4.48849103
C     4.76241108     0.02101278    -0.40082734
C     4.25901798    -0.59354111     0.73919080
C     3.08271134    -0.12460053     1.29244151
C     2.36861976     0.91870797     0.69371667
C     2.88460141     1.55921216    -0.43252167
C     4.15834521     1.19150357    -0.85057499
H     4.78652279    -1.38913537     1.24870364
H     2.62335454    -0.61989235     2.14077684
C    -1.83960460     3.34765946     1.15786690
C    -1.79858056     4.16158177     0.02308719
C    -2.99141991     3.39334789     1.94849400
C    -2.90163085     4.91327492    -0.36149963
H    -0.95704793     4.15891930    -0.65084289
C    -4.03820311     4.24396301     1.63264406
C    -4.03551407     4.94380100     0.43502055
H    -2.77754426     5.53819456    -1.23637857
H    -4.87942093     4.19499491     2.31142663
Cl     6.11313509    -0.70613756    -1.20829594
Cl    -5.54510131     5.72690886     0.04706649
N     1.16498598     1.24929732     1.33520820
H     1.17502470     1.19916817     2.34175727
C     0.16619936     1.91279462     0.64021840
O     0.11248266     1.83265133    -0.56391029
N    -0.74526489     2.52280788     1.48008159
H    -0.66793669     2.21826582     2.43774674
H    -3.05977605     2.79856798     2.85347376
H     2.51969859     2.40977953    -0.98510292
Cl     4.86999599     2.08267931    -2.15621973
