70
 energy: -143.132171186860 gnorm: 0.122397372645 xtb: 6.6.1 (8d0f1dd)
O    -1.46741246    -0.93600255     3.49647966
H    -2.22587330    -1.47977705     3.71644436
H    -1.73284208    -0.69361218     2.60758557
O    -1.50724926     0.90073958    -2.49341799
H    -1.04979531     0.95592429    -1.65256763
H    -2.43924508     0.92930309    -2.27002150
O     1.18593897    -0.66697187     3.91940223
H     1.58512857    -1.08713517     3.15556384
H     0.23173759    -0.74317719     3.86434916
O    -2.33159655    -0.88194715     0.93096831
H    -3.03600397    -0.81451252     0.28397393
H    -1.50781951    -1.12739546     0.50613308
O     1.33854403    -0.98553394    -3.28306519
H     0.82956700    -0.19413314    -3.46736480
H     2.24294845    -0.76223592    -3.51006462
O     0.18337320    -1.63642882    -0.76939314
H     0.43298038    -0.71483616    -0.68163661
H     0.40068585    -1.82873119    -1.68325005
O    -3.17521416    -2.50929108    -4.72535134
H    -2.45030104    -1.94956207    -5.00915030
H    -2.70783203    -3.16634570    -4.20653370
O    -4.49695039    -0.37447151    -3.29085920
H    -3.91767139    -1.04559039    -3.65606253
H    -4.84904951     0.18618796    -3.98441791
O     1.40924808     1.87041854    -2.90712409
H     1.80864646     2.56462470    -3.43428377
H     1.06014258     2.21189671    -2.08198421
O    -4.33872211     0.81486151    -0.29581747
H    -4.94955887     0.40262263    -0.90923078
H    -4.74425232     1.65232834    -0.06444583
O    -2.00667162    -0.05517803    -4.95087837
Cl    -2.77556475     0.98978037    -6.05452120
H    -1.90638931     0.35305344    -4.08261749
O     1.19337223     4.27138234     3.07350206
Cl     1.72327683     5.34435397     1.86143866
H     1.26086328     4.83328619     3.85471658
O     1.64331429    -2.35487459     1.32702657
Cl     1.07236255    -3.94622755     1.53384455
H     1.21386806    -2.23237266     0.47195035
O     1.25371499     1.47341032     5.24373718
Cl     0.21025295     1.21152261     6.56425323
H     1.52503121     0.60611445     4.92004990
C     5.23934918    -0.52597500     0.48939386
C     5.20155931     0.14621746     1.70489857
C     4.12649557     0.94857582     2.03678399
C     3.00372920     0.91409743     1.20305876
C     3.05784279     0.40328515    -0.09348973
C     4.21261637    -0.29737835    -0.42207776
H     6.10771048     0.12495443     2.29589167
H     3.96175200     1.40383344     3.00714245
C    -1.59611416     2.67031827     1.46825652
C    -2.08509338     2.96708536     0.19361693
C    -2.32191455     3.06283463     2.59653036
C    -3.30074318     3.63582497     0.12540826
H    -1.61751756     2.67870398    -0.73405491
C    -3.58185840     3.62148786     2.45685076
C    -4.12139223     3.90211753     1.21016204
H    -3.62141228     3.86879860    -0.88168152
H    -4.19667034     3.87726244     3.30971458
Cl     6.70455577    -1.36989064     0.10705301
Cl    -5.73232861     4.55096500     1.04737125
N     1.85063944     1.55495331     1.68183088
H     1.76786493     1.70626460     2.67481023
C     0.66736926     1.61767585     0.96297641
O     0.46828166     1.35672872    -0.19956608
N    -0.30063312     2.20121858     1.75714434
H    -0.15449666     2.32902125     2.74616338
H    -2.00415988     2.81411698     3.60380170
H     2.18322669     0.39850485    -0.72356018
Cl     4.40384383    -0.80956678    -2.06720520
