70
 energy: -143.139628794033 gnorm: 0.110144150649 xtb: 6.6.1 (8d0f1dd)
O    -1.03323235    -1.45138626     0.73567490
H    -0.20878233    -1.41356484     0.24762805
H    -1.55436978    -0.77065532     0.30630344
O    -3.86488185    -1.43696321    -2.80919266
H    -4.80992623    -1.46230963    -2.96915352
H    -3.63770413    -2.10210782    -2.15703394
O     0.31095090    -0.51767053     2.82794875
H     1.24863099    -0.68420302     2.93913144
H     0.11142120    -1.03185092     2.04363707
O    -2.67596521     0.09721517    -1.05549445
H    -3.15980374     0.06753356    -1.88275394
H    -2.53798892     0.99244064    -0.74105469
O    -1.11364757    -0.83387745    -3.40732713
H    -1.43373764     0.00671108    -3.73943021
H    -1.93110894    -1.21791091    -3.08543688
O     2.56793777    -3.18848175    -1.20521416
H     1.97537432    -2.44263610    -1.09603174
H     1.99995195    -3.92553624    -1.43647640
O    -1.12653352    -3.59170976    -1.11828745
H    -1.23289087    -2.74129023    -0.68838960
H    -0.80271068    -3.60610215    -2.02065668
O    -2.28072166    -1.09712146     3.94798494
H    -1.37872261    -1.29729444     4.20424002
H    -2.44567723    -1.26498308     3.01849656
O     0.68111968    -0.82716865    -1.47803636
H     0.03908121    -0.59921122    -2.15269229
H     1.51843207    -0.54614278    -1.85122563
O    -4.15546487    -3.70372584    -1.20078258
H    -3.27409137    -3.87283311    -0.86325952
H    -4.51091865    -4.59285449    -1.15137463
O    -1.56064214     1.99373564    -2.89524742
Cl    -1.35890594     3.07395831    -4.19662504
H    -0.84665005     2.19042953    -2.27709435
O     1.29258977     1.90198000     3.65282927
Cl     2.20085371     1.70582958     5.08032578
H     0.46701373     2.20986199     4.04553778
O     3.06140396    -2.63082907     2.28492665
Cl     1.54216796    -3.29189994     1.88986829
H     3.47766315    -2.69602085     1.41713379
O    -1.30326747     1.48504498     4.34431372
Cl    -2.37095123     2.04964916     5.54532760
H    -1.27275483     0.54535096     4.12836882
C     5.27379071     0.34012415    -0.67091646
C     4.93179518     0.07778265     0.65004477
C     3.62270708     0.26599165     1.05073758
C     2.79020859     1.00342727     0.20219414
C     3.17919929     1.37326811    -1.08497314
C     4.40527877     0.94118809    -1.57735264
H     5.62344371    -0.47522191     1.27185118
H     3.35233680     0.00797345     2.06873663
C    -1.76410824     2.94542509     0.85137141
C    -1.87501987     3.80385463    -0.24529395
C    -2.82131922     2.90265329     1.76478959
C    -2.98644099     4.62309287    -0.39781074
H    -1.06597437     3.90599118    -0.95054537
C    -3.93516035     3.71554482     1.63202035
C    -4.00825955     4.56355972     0.53675335
H    -3.02799663     5.26104644    -1.27109398
H    -4.75200310     3.61409599     2.33435013
Cl     6.86016958    -0.18943238    -1.12718451
Cl    -5.43144673     5.51896363     0.21370296
N     1.53860479     1.36909691     0.72114384
H     1.47006104     1.32071966     1.72549248
C     0.40977912     1.96758156     0.18413069
O     0.27203033     2.19012482    -0.99516325
N    -0.60408558     2.18645290     1.09650523
H    -0.53654271     1.81618772     2.03148639
H    -2.70782455     2.24533112     2.62063456
H     2.46276924     1.90052010    -1.69382317
Cl     5.03190424     1.40620593    -3.12539923
