%nproc=8
%mem=4000MB
#opt=(noeigen,calcfc,ts,recalc=5,maxcyc=200) freq B3LYP/SVP em=GD3BJ

ts-2168.gjf

0 2
O  -0.58180179527855  -6.97744284341786  2.52693076034726
H  0.37769831082224  -6.84759285763434  2.53978431405750
C  1.81360980213456  -2.61387720154541  3.19434499522606
C  0.64727441927414  -2.89407722157398  2.29577239044477
C  0.65902165678885  -4.17853407275168  1.83014285412784
C  -0.11334071637769  -4.96642056036202  1.05061498373531
C  1.87388052203570  -4.91329948940194  2.35053031446016
C  2.55608088091749  -3.78561376678779  3.09897366152336
H  -0.26563329080742  -2.27875697845046  2.38368508487165
Cl  1.26209544771840  -1.71068530963607  4.57197981821163
N  -0.64409606983880  -6.08860614668423  1.06968229635788
H  -0.94474623658292  -6.82377562022379  0.50194707795661
H  2.27946319243292  -5.90245010133730  2.32255439335983
Cl  3.76575812237095  -4.22101480264506  4.18294293611207

