%nproc=8
%mem=4000MB
#opt=(noeigen,calcfc,ts,recalc=5,maxcyc=200) freq B3LYP/SVP em=GD3BJ

ts-2612.gjf

0 2
O  -7.01843252060274  1.34365751666543  -1.44252977513631
C  0.71233776037961  1.17025679817420  2.25384132027578
C  -0.47896761784221  1.67937242448810  1.81529432374682
C  -0.74438523107112  1.38403070867012  0.41204431272800
C  -0.10918752041694  0.29793134683560  -0.17532071298379
C  0.92207657327974  -0.39131330554037  0.34378389570907
C  1.47249887857648  0.20211551727839  1.48200981976934
H  -1.32164330003667  2.12239998321023  2.28307893100409
H  -1.68803167531561  1.78726578969078  -0.00992841194733
C  -3.06604306317187  0.15125992035562  -2.16766965172595
C  -4.12877187362284  -0.55852588932673  -2.78330332878974
C  -3.44385798504494  1.45123277939457  -1.70927555433970
C  -5.47431208713799  -0.24911511211182  -2.43895842746835
H  -4.09221958170412  -1.29393937036296  -3.54973029957132
C  -4.74984543176371  1.77378677206133  -1.58137916342894
C  -5.91946035974680  0.88563484992251  -1.71148345532867
H  -6.16068285222981  -0.94835603671899  -2.83194251557287
H  -5.09999022341508  2.65579578513841  -1.02755454814578
Cl  1.38421452933946  1.81505501420554  3.64527577622454
N  -0.44119496989908  -0.15366750349555  -1.40546283122076
C  -0.78382678136505  -1.43189675401775  -1.78319842588686
O  -0.74661386006461  -2.66658351940873  -1.71085837921795
N  -1.77235923343034  -0.40363410763100  -1.99731050073113
H  -2.54807492114286  2.03217525424033  -1.60222694969829
H  1.17581143519453  -1.29310511564607  -0.18860816033138
Cl  2.73766180191293  -0.93996732663910  2.30984989213046

