%nproc=8
%mem=4000MB
#opt=(noeigen,calcfc,ts,recalc=5,maxcyc=200) freq B3LYP/SVP em=GD3BJ

ts-2622.gjf

0 2
O  -6.86301206537076  0.79401432518344  -1.85652377724237
C  0.92093077919058  1.03515582622355  2.08053385698787
C  0.68159611099864  2.06042327037704  1.27106668875017
C  0.16806677037946  1.82077430337735  -0.06300098858435
C  0.21310927349985  0.45439255209231  -0.46193386405404
C  0.61501835133941  -0.64296784981203  0.32778430017376
C  1.00481933102191  -0.26925734796580  1.63576246463690
H  0.96581737962363  3.09498483051851  1.53441086420151
H  0.03262202586544  2.70743621440544  -0.66107367020255
C  -2.97536351606881  0.32412060696979  -2.24031950956992
C  -3.92227481874547  -0.73921186503259  -2.69626990890512
C  -3.44203549930254  1.64261757636045  -1.98800088048818
C  -5.28012547743517  -0.42794890266060  -2.76113689219429
H  -3.59619093628251  -1.78836674655966  -2.72792619496278
C  -4.71442523621617  1.92613974965323  -1.87148155985548
C  -5.65378959064626  0.85281402471217  -2.09877111372418
H  -6.16763374439948  -1.02934785157625  -3.04007728670681
H  -5.10613809591146  2.86740505590238  -1.58923358008790
Cl  1.51323891537664  1.43718438932517  3.81513510414563
N  -0.40101304392041  0.05135461420965  -1.67566799445964
C  -1.13287804837543  -0.98046883503460  -1.49063156349405
O  -1.24224606891145  -2.00212251313972  -0.94538486727800
N  -1.74243567492876  -0.04358177349211  -2.32136896282875
H  -2.73770589215025  2.36962566989691  -1.62265512223545
H  0.85354558711227  -1.63179677148747  -0.05344773408182
Cl  2.38238316601188  -1.13564288403018  2.48882121554987

