%nproc=8
%mem=4000MB
#opt=(noeigen,calcfc,ts,recalc=5,maxcyc=200) freq B3LYP/SVP em=GD3BJ

ts-2632.gjf

0 2
O  -6.95824451834836  0.73630663959517  -2.36880177887015
C  1.63830384761867  1.34461195486078  1.98954537435336
C  1.10464776301425  2.44664738193702  1.17497127297437
C  0.38985169635836  2.18126791300994  -0.05343593434140
C  0.31247047545210  0.82437732751304  -0.36097113593655
C  0.51920492110346  -0.15186110686599  0.67148902261857
C  1.36117544976544  -0.04996074902308  1.68478651365692
H  1.70374142136213  3.34021396511939  1.14760786603041
H  0.65038548363885  2.83932040219197  -0.88481589312445
C  -2.84109159761828  0.53140030640700  -2.40467129868793
C  -3.66001242057605  -0.53553406090670  -2.76290997888135
C  -3.49509494482710  1.78665107596363  -2.16615650374323
C  -5.02000542413432  -0.58358530309006  -2.73050950246572
H  -3.10448784891803  -1.47613591892005  -2.78954156816908
C  -4.81266822332928  1.80635327152573  -2.28780965583898
C  -5.72470811617187  0.62709305953124  -2.43375692365733
H  -5.54442541595420  -1.53618508686319  -2.72103211209769
H  -5.38422342287016  2.72110335216147  -2.41924710266585
Cl  1.37651706761674  1.19841494535313  3.81068114238733
N  -0.25480512619883  0.05987894642522  -1.33978268907859
C  -1.40191378465497  -0.82971533464280  -1.31916122169101
O  -1.95831884383289  -1.79655902417248  -0.83384646947422
N  -1.45631425485821  0.11276181199416  -2.30910437920829
H  -2.88280735031896  2.67882415206259  -1.93305019473445
H  0.16612748886933  -1.16313374981939  0.44705781325368
Cl  1.50208704117150  -1.46658191504947  2.61271958021511

