%nproc=8
%mem=4000MB
#opt=(noeigen,calcfc,ts,recalc=5,maxcyc=200) freq B3LYP/SVP em=GD3BJ

ts-2642.gjf

0 2
O  -6.92491814899389  0.77910825441733  -2.93194565238199
C  1.00804844688617  0.89991601260098  2.49000765706684
C  1.19484840499873  1.95193179777100  1.49915446065436
C  0.65598716807060  1.90948146669325  0.17050762661111
C  0.19670984946941  0.59526743935042  -0.23892655117103
C  0.72611587863642  -0.56070834111911  0.50580720785211
C  0.85303684812937  -0.34893522920083  1.88903620373003
H  2.00963580908709  2.57346075986192  1.85146337686268
H  1.05844090074507  2.63604948202639  -0.54594566882818
C  -2.88715529229269  0.52713866917169  -2.69269790465206
C  -3.70355678435682  -0.61720903492146  -2.83012108995525
C  -3.50259096821667  1.82248820768349  -2.43894322911459
C  -5.07176062269534  -0.58770287480755  -2.85726808083642
H  -3.18289454576833  -1.45727576838835  -3.23471731253630
C  -4.87413558792818  1.84829635582379  -2.41989920346729
C  -5.72868089555052  0.65974699788808  -2.71397341009741
H  -5.64390887927721  -1.48384831878094  -2.81360350894078
H  -5.51358632884267  2.74233541794273  -2.46291129593124
Cl  1.59710348247497  1.68527648124838  4.01798417941470
N  -1.00877284581023  0.59784662073459  -0.81350452505938
C  -1.54300192803834  -0.52201927383796  -1.42106815338187
O  -1.66437773057688  -1.61074173000391  -0.89504563767673
N  -1.51195616325275  0.21657592632565  -2.60853109669107
H  -3.03785537675797  2.75531179438256  -2.65301432490733
H  0.75346871220247  -1.57359766201676  0.16046564345713
Cl  0.97189169106085  -1.64486378643855  2.85999733044491

