%nproc=8
%mem=4000MB
#opt=(noeigen,calcfc,ts,recalc=5,maxcyc=200) freq B3LYP/SVP em=GD3BJ

ts-2662.gjf

0 2
O  -7.35376770943749  1.14877385264687  -3.39355064815661
C  0.98534297871882  0.77367050574255  2.88008111734519
C  1.52326989926950  1.50406995511891  1.80733448571508
C  0.88550778907989  1.57597897966218  0.56720730530417
C  -0.21330547679757  0.67835148166469  0.29851600299452
C  -0.52538448357246  -0.29293748705759  1.34777129660444
C  0.05128790991016  -0.21989187454859  2.56263115996211
H  2.11637678116639  2.31385748123287  2.21296993136294
H  1.08414192859976  2.58641526479027  0.23313320141871
C  -3.23120082599867  0.24566546144784  -2.97742348844350
C  -4.28507871276818  -0.72602261464353  -3.35912248597353
C  -3.65380319427904  1.56475630961097  -3.39305507602156
C  -5.59054651937200  -0.46580864483798  -3.49049374635965
H  -4.07717957166755  -1.76720029011182  -3.29359603320416
C  -5.03960961607200  1.83018974348919  -3.56719805120337
C  -6.14224178121512  0.84714697036301  -3.53300194094323
H  -6.25679461871929  -1.17448815500933  -3.91098727710389
H  -5.44713605754879  2.84699006888554  -3.63885312005855
Cl  1.77233879994808  1.00807735707327  4.38185049429944
N  -0.40336276183722  0.42448617173298  -0.98723871889033
C  -1.01138241687397  -0.44556435535754  -1.75421702171141
O  -0.37456301504214  -1.52122082773494  -1.80319372431673
N  -2.17787082131131  -0.21510356629590  -2.32760962702305
H  -3.00762328942093  2.39812745734259  -3.17503853472046
H  -1.01227748708006  -1.14739551876930  0.87785641708981
Cl  0.33863115825501  -1.60832765033050  3.47646990091364

