70
 energy: -143.143564170195 gnorm: 0.100719477425 xtb: 6.6.1 (8d0f1dd)
O    -0.72245995    -0.66667346    -0.10462207
H     0.05510038    -0.81775247    -0.64491188
H    -1.47194145    -0.36228481    -0.61936834
O    -3.06033103    -0.27966499    -1.80638151
H    -2.69367830    -1.04953331    -2.24479609
H    -2.64644971     0.48016214    -2.21954377
O    -0.51039707    -1.28194466     2.63755677
H     0.30859254    -1.01023501     3.05560999
H    -0.31531722    -1.32518246     1.69978670
O    -4.30434102    -0.72902420     1.28827256
H    -3.78507446    -0.71616895     0.48233462
H    -4.97397472    -1.41521664     1.29658572
O     0.67250355    -4.01919789    -3.52338352
H    -0.11120245    -3.48015205    -3.64410507
H     0.87025900    -4.50451857    -4.32631236
O     1.78938464    -1.84952396    -1.92166286
H     2.29239370    -1.27883380    -2.50530025
H     1.38932857    -2.57247691    -2.40811290
O    -0.92057874    -3.58954708    -0.55912131
H     0.01838789    -3.76138828    -0.46884562
H    -0.93028698    -2.63255718    -0.50068620
O    -2.27116906     0.45090342     3.25905474
H    -3.12735719     0.03041695     3.35637475
H    -1.84720818    -0.11061042     2.60767475
O    -0.12897029     0.15373935    -2.77978513
H    -0.51837526     0.70987404    -3.45684980
H     0.40595318     0.77535835    -2.28301103
O    -2.61959126    -3.38654384    -2.90759272
H    -1.99871065    -3.50584277    -2.18675059
H    -3.21721984    -4.13581099    -2.93546934
O    -1.84413230     2.30159662    -2.47891086
Cl    -3.30007862     2.91839334    -3.11211252
H    -1.36810282     2.87249225    -1.86404459
O     1.67019606     1.17070137     4.29965481
Cl     2.77400609     2.46765946     4.27381306
H     0.80106798     1.37703769     4.66383718
O     2.08223778    -2.37023424     0.77657243
Cl     3.45664486    -3.31988955     1.10872266
H     2.36036002    -1.86727848     0.00180172
O    -0.81262043     2.13996069     4.77831474
Cl    -1.82024295     2.65904182     6.04969685
H    -1.31259850     1.42702706     4.36318147
C     4.92976663    -0.23844607    -0.25171787
C     4.63906149    -0.25398356     1.10694758
C     3.45483190     0.27998529     1.57829308
C     2.40209513     0.64557796     0.73272919
C     2.70169542     0.67972878    -0.62887613
C     3.92931029     0.22812754    -1.09942874
H     5.34716960    -0.72194357     1.77808938
H     3.46932464     0.37522833     2.65843857
C    -1.70651911     3.30575721     1.03059141
C    -1.38784060     4.37990453     0.19600824
C    -3.01961307     3.10552323     1.46596228
C    -2.43235167     5.03662295    -0.44226058
H    -0.34161825     4.62242510     0.10130553
C    -4.08707001     3.73083647     0.84259933
C    -3.72502364     4.63331233    -0.14661364
H    -2.23240853     5.78789837    -1.19521689
H    -5.11819671     3.56319378     1.12449420
Cl     6.41044205    -0.92973082    -0.83045304
Cl    -4.98224484     5.51130370    -0.97796549
N     1.19149468     1.06093918     1.30845200
H     1.10556864     0.89007598     2.29798586
C     0.30573363     1.94669660     0.71542971
O     0.39718669     2.22599695    -0.45626224
N    -0.66856373     2.49462661     1.52707672
H    -0.88691575     2.02483110     2.39163594
H    -3.26665476     2.36737032     2.22195484
H     1.99261490     1.10859083    -1.31825789
Cl     4.32250521     0.34289221    -2.78393943
