%nproc=8
%mem=4000MB
#opt=(noeigen,calcfc,ts,recalc=5,maxcyc=200) freq B3LYP/SVP em=GD3BJ

ts-2128.gjf

0 2
O  -1.43226605360312  -6.36467075225011  4.33912968945749
H  -1.58384503592760  -5.42068079531249  4.49573649351283
C  2.44554729311695  -2.47090320450634  2.78758412931843
C  1.63211109011060  -2.78003012361913  1.72539758607495
C  0.81027833154356  -3.95698181894456  1.89995488422094
C  0.07761759517818  -4.91572658452407  1.38439528217378
C  1.54569231987917  -4.38431746795105  3.35457834953791
C  2.63396902096531  -3.60767877737079  3.45452861455517
H  1.34883185485206  -1.92501907586517  1.05259878970992
Cl  3.17855062403435  -0.98270502697122  3.23227712475591
N  -0.61782080268148  -5.94199838644285  1.24045115144211
H  -1.24389447958129  -6.34802552044910  2.03598906766203
H  1.53252512822400  -5.44335261404944  3.62077583617087
Cl  3.87586187446416  -3.73758532932916  4.63044853418431

