%nproc=8
%mem=4000MB
#opt=(noeigen,calcfc,ts,recalc=5,maxcyc=200) freq B3LYP/SVP em=GD3BJ

ts-5842.gjf

0 2
Cl  6.24536744621514  2.22010138756914  -0.23618370382309
O  5.35779749424312  -1.76302160255670  3.33985807061781
H  6.03845468369932  -1.91617449742921  2.58235273162637
C  4.13613173774891  0.23929071662551  0.41590475293206
C  4.84186116734941  -0.55962469612008  1.33691788024703
C  4.60120675750473  -0.68588848153834  2.79119233416083
C  4.82122473868944  1.25387706298690  2.85028205708700
C  3.53003635273947  1.65951039065077  2.42862631455494
C  3.32163690837300  1.24895273220958  1.02946082247355
H  5.71909906280262  -0.98543504710720  0.83259450113423
H  3.50711960404309  -0.73660165512428  3.20117649634768
Cl  4.53700437859019  0.35111759251343  -1.27389481601496
N  6.05244624147168  1.34070554657537  2.71779592657309
H  6.56898734987746  2.18280685029160  2.41331175175269
H  2.72593133991842  1.99676713790127  3.02871061784768
Cl  1.72211780322626  1.45610366618943  0.68227858893796

