70
 energy: -143.146064751446 gnorm: 0.107605750223 xtb: 6.6.1 (8d0f1dd)
O    -2.71155610     0.06454727     4.50061146
H    -1.91154211    -0.44943256     4.62365766
H    -2.76568378     0.49995878     5.35315219
O    -0.95228935     0.46850638    -2.23539262
H    -0.38824248     1.20782041    -2.00171616
H    -1.77741276     0.57332002    -1.75839834
O     0.38659197     0.00065514     4.08098744
H     0.00704695    -0.38846889     3.29113512
H     1.19100571    -0.44696215     4.34912108
O    -0.96594631    -0.74342284     1.89646332
H    -1.85703433    -0.39561222     1.83066895
H    -0.67486784    -1.20599538     1.10865724
O     2.17087305    -2.31092226    -4.85958788
H     2.93511717    -1.99413429    -4.37490706
H     1.89184923    -1.48820669    -5.26532535
O    -0.23610691    -1.68233769    -0.65874115
H    -0.26070552    -0.76732879    -0.94420850
H     0.16335014    -2.17318641    -1.37904738
O     0.66420194    -3.18266735    -2.67742311
H     1.06065374    -2.94582643    -3.51770270
H     0.97295631    -4.07852212    -2.53095282
O    -2.81477155    -1.91176912    -2.30485645
H    -2.00414339    -2.14836331    -1.85071623
H    -2.57293887    -1.43661060    -3.10177417
O     0.95724593     0.38347245    -5.22175815
H     1.02766910     1.03368025    -4.52060981
H     0.12291597     0.58523280    -5.64898655
O    -3.34498608     0.28573288    -0.05720340
H    -3.42868952    -0.51057873    -0.58466893
H    -4.17616321     0.32740972     0.41897504
O    -1.73223111     0.76735519    -4.79489158
Cl    -3.35590734     1.14048869    -4.44047782
H    -1.41060304     0.46416294    -3.93744406
O     2.29861328     2.12740609     4.08270020
Cl     3.92059772     1.95524697     4.57330428
H     1.69665915     2.00724396     4.82687719
O     1.78849720    -2.57588672     0.94550345
Cl     1.60323531    -2.57575243     2.63867853
H     0.91164907    -2.29643672     0.65631288
O    -0.21881302     2.56598662     5.19859721
Cl    -1.51108937     3.25128771     6.07126271
H    -0.48682879     1.64897171     5.06503348
C     4.66285580    -0.35552630    -0.31311687
C     4.49712074    -0.39861081     1.06579505
C     3.40128833     0.20957019     1.64799442
C     2.49022109     0.90306469     0.84430748
C     2.60876303     0.83108651    -0.54337490
C     3.67866705     0.17555601    -1.14169474
H     5.16956175    -0.98250964     1.68038445
H     3.15885301    -0.09774274     2.65931997
C    -1.88427478     3.07041545     1.06639761
C    -2.06181586     3.80366062    -0.10948851
C    -2.96241453     2.62687161     1.83759193
C    -3.34968845     4.19208877    -0.45615447
H    -1.26258917     4.02628135    -0.79799611
C    -4.23260322     3.03215386     1.46152103
C    -4.42999463     3.75325973     0.29313519
H    -3.44298347     4.82047164    -1.33237716
H    -5.10513804     2.79413299     2.05550765
Cl     6.18890736    -0.83897964    -0.97843481
Cl    -5.95226888     4.38476576    -0.27826758
N     1.45048178     1.67941196     1.37887466
H     1.46826898     1.73969496     2.38475949
C     0.42232954     2.24385852     0.64055412
O     0.33329403     2.33767326    -0.56048950
N    -0.61363282     2.62097445     1.47291161
H    -0.54088269     2.47289125     2.46720876
H    -2.83304920     1.99717170     2.71175821
H     1.96168625     1.50214248    -1.08461465
Cl     3.81744712     0.11192963    -2.86855345
