70
 energy: -143.134450917092 gnorm: 0.117677381214 xtb: 6.6.1 (8d0f1dd)
O    -2.78840560     1.03042265     4.36776046
H    -2.29425595     0.21232200     4.44434689
H    -3.49958104     0.97745708     5.00866828
O    -1.07837602     0.91780888    -1.90470848
H    -0.62127479     1.43018330    -1.23547778
H    -1.92138121     0.79244655    -1.46543110
O    -0.00898404    -0.38557104     4.40388304
H    -0.24689125    -0.78974601     3.56759280
H     0.88328873    -0.70657106     4.54582198
O    -1.22877003    -0.49654197     1.94952829
H    -2.04924670    -0.13111222     1.61394208
H    -0.94187190    -1.07998036     1.24481022
O     2.12448506    -2.28923101    -4.74484587
H     2.87841267    -2.36625902    -5.33221206
H     1.53215050    -1.66493389    -5.16761174
O    -0.43653908    -1.80572299    -0.96956914
H    -0.20089150    -0.97134222    -1.37897960
H     0.10209277    -2.46032805    -1.41757293
O     0.96568079    -3.44549148    -2.57994754
H     1.49464098    -3.02533920    -3.26039637
H     1.10878234    -4.38959641    -2.66670248
O    -2.94048072    -1.74717960    -2.07916892
H    -2.04761034    -1.87137225    -1.75252408
H    -2.99565963    -2.07534834    -2.97838919
O     0.90500894    -0.14150476    -5.78667992
H     1.37990694     0.68857978    -5.71761372
H     0.03604004     0.04664101    -5.42774813
O    -3.10153429     0.12010125    -0.30302508
H    -3.09260487    -0.66766411    -0.84954528
H    -3.95318090     0.11571538     0.13744865
O    -1.64692167     0.94357190    -4.36423158
Cl    -3.32940289     1.20727657    -4.39387952
H    -1.45319680     0.97108637    -3.41961524
O     2.71609485     2.98177589     4.10759930
Cl     3.51476502     1.52877486     4.49757185
H     1.93100955     3.03631772     4.66550015
O     1.57056980    -2.78762482     0.92226935
Cl     1.76600499    -2.18676545     2.50402057
H     0.66145917    -2.84933748     0.60557464
O    -0.37816065     2.72465754     4.77819152
Cl    -1.58710477     3.11902946     5.91136659
H    -0.36627828     1.77204006     4.62664341
C     4.80390213    -0.27515603    -0.41210806
C     4.72696657    -0.34341709     0.97358448
C     3.57019861     0.17642889     1.52252616
C     2.53815615     0.77881288     0.79526227
C     2.71064586     0.84324477    -0.58712382
C     3.84788202     0.34433994    -1.21177519
H     5.60714539    -0.60617370     1.54549278
H     3.49222405     0.33531560     2.59241890
C    -1.85267938     2.95085252     1.23195660
C    -2.03295798     3.68446855     0.05671848
C    -2.99218133     2.53897430     1.92891340
C    -3.29798825     4.06949695    -0.36886471
H    -1.15050223     3.97415969    -0.49074558
C    -4.24383074     3.01796001     1.57818739
C    -4.40377618     3.69540419     0.37836685
H    -3.49242709     4.59508480    -1.29476219
H    -5.12110967     2.70069699     2.12638161
Cl     6.28916416    -0.90031224    -1.05115804
Cl    -5.95243143     4.29328507    -0.15719384
N     1.43234101     1.31954054     1.46929600
H     1.61537159     1.36446042     2.45936506
C     0.37544695     2.01007445     0.89749874
O     0.39746195     2.20237886    -0.29488068
N    -0.64673641     2.42241272     1.73018823
H    -0.69202207     2.19251969     2.71046699
H    -2.92292326     1.91985375     2.81734861
H     1.90385238     1.11237747    -1.24940535
Cl     4.00634322     0.27419374    -2.93668642
