70
 energy: -143.146951766161 gnorm: 0.120147980214 xtb: 6.6.1 (8d0f1dd)
O    -1.29576636    -1.02004398     0.62688513
H    -0.84384082    -0.99684492    -0.21843322
H    -2.22579897    -0.99490995     0.39505260
O    -4.73867073    -1.72882355    -2.81498259
H    -5.67385305    -1.72960614    -3.02657703
H    -4.51389756    -2.61750041    -2.53379131
O     0.58139743    -0.41009367     2.86760722
H     0.64201339    -1.19298939     3.41782409
H     0.04952068    -0.55362117     2.08284907
O    -3.56926602    -0.19438374    -0.75220131
H    -4.09320823    -0.60013258    -1.44515977
H    -3.21840993     0.56627862    -1.21871094
O    -2.11517623    -0.71169791    -3.20609782
H    -2.40559238     0.19895824    -3.13057942
H    -2.69962090    -1.22940860    -2.64955655
O     2.22286002    -2.64059581    -0.07157981
H     1.85022119    -3.51034304    -0.22655740
H     1.88251067    -1.92040529    -0.60527204
O    -1.82062229    -3.30353102    -1.49139023
H    -1.53050177    -2.68304856    -2.16233660
H    -1.22611264    -3.18931349    -0.74785057
O    -2.51003775    -0.75541277     3.13086577
H    -3.38657137    -1.09703380     2.94560362
H    -1.92147901    -0.98587041     2.40987728
O     0.15588117    -1.03132774    -1.63632028
H    -0.56760001    -0.97418546    -2.26293686
H     0.39049012    -0.10232915    -1.67178973
O    -3.98371776    -4.27655195    -2.41172377
H    -3.15807296    -4.15306089    -1.94013183
H    -3.66114714    -4.32559190    -3.31332323
O    -1.87765035     1.67573224    -1.98861631
Cl    -2.42984828     2.87716181    -3.06230465
H    -1.03302558     2.00183697    -1.65567318
O     1.36798066     2.99426681     3.62808895
Cl     2.75485448     2.00997728     3.72253363
H     0.90187396     2.55139356     4.34725161
O     1.56904961    -2.82453714     2.87621016
Cl     1.20096571    -4.47095048     2.64168691
H     1.99713966    -2.63912051     2.03184903
O    -0.88167561     1.15385858     4.39651623
Cl    -2.35945946     1.87801687     4.83573202
H    -1.27376632     0.45162188     3.86386572
C     5.72773225     0.59683077    -0.54014455
C     5.32155540     0.00780486     0.65098571
C     4.00574651     0.15875273     1.04538476
C     3.10512878     0.85869302     0.23553161
C     3.47418283     1.49372548    -0.94997602
C     4.82823748     1.38974565    -1.24683568
H     6.08098740    -0.43805789     1.27971803
H     3.59194746    -0.33809368     1.91596472
C    -1.29434682     2.90826852     0.73383135
C    -1.15409028     4.05245161    -0.05550423
C    -2.54222740     2.46107349     1.17730381
C    -2.26403642     4.83066833    -0.35893107
H    -0.18065975     4.38725003    -0.37598674
C    -3.63822230     3.24173628     0.84802716
C    -3.49443399     4.41893783     0.12858016
H    -2.22100916     5.74216658    -0.94087161
H    -4.64956805     3.11188521     1.21011766
Cl     7.35981363     0.41692816    -1.09616062
Cl    -4.98300764     5.31518493    -0.02474799
N     1.81332544     0.99425477     0.76694682
H     1.72089693     0.87942997     1.76395583
C     0.79848316     1.78086927     0.24526974
O     0.65978109     1.99357578    -0.93572644
N    -0.18813137     2.13976599     1.14306612
H    -0.08477417     1.91263542     2.11957881
H    -2.51799728     1.50728894     1.69415193
H     2.83834800     2.13736174    -1.53598914
Cl     5.35934421     2.28576885    -2.63262689
