%nproc=8
%mem=4000MB
#opt=(noeigen,calcfc,ts,recalc=5,maxcyc=200) freq B3LYP/SVP em=GD3BJ

ts-3007.gjf

0 2
O  -2.66066765438140  -0.74525996062413  5.01114958342979
Cl  -0.86942507944979  -1.51983618595896  6.88465212741449
H  -1.92293624445898  -0.74416391634688  4.43950201844831
H  -3.38001447747165  -0.09301720067888  5.16896701619191

