%nproc=8
%mem=4000MB
#opt=(noeigen,calcfc,ts,recalc=5,maxcyc=200) freq B3LYP/SVP em=GD3BJ

ts-3017.gjf

0 2
O  -2.55790297158684  -0.90618317626793  4.89851339202197
Cl  -0.91500586336148  -1.76720823827870  6.94579051691022
H  -3.17930427601859  -1.00890771482413  4.14129154873588
H  -2.03837672780274  -1.15287117152004  6.50088524569111

