%nproc=8
%mem=4000MB
#opt=(noeigen,calcfc,ts,recalc=5,maxcyc=200) freq B3LYP/SVP em=GD3BJ

ts-5775.gjf

0 2
O  -3.54797877122134  3.30266273254802  0.38440592742433
H  -3.07257152483559  2.81645309520197  1.10199802692033
Cl  -4.84643405129578  5.14510422685295  -1.47945201476474
C  -3.17810317267466  4.93793096776654  -1.31488618892980
C  -2.72545427804933  3.93910350496438  -0.43110307943463
C  -1.48360707939515  3.43222317024166  -0.33033570967818
C  -0.49799111948467  3.94609457713762  -1.13293290077127
C  -0.87838790157190  4.96220568307703  -2.04237703439152
C  -2.13270646040296  5.43100303889787  -2.15452826596479
H  -1.15655091792008  2.63937200986634  0.30056432236106
C  1.27808264618338  0.91640161650146  1.05070571442961
C  1.47991913643343  0.58604408557838  2.40357894630971
C  2.39172307547390  0.72409559357851  0.15088505550994
C  2.59069286451596  -0.34262826678881  2.75743088105123
H  0.99114125946136  0.75366619851665  3.35583239965216
C  3.65903699127179  0.14115050404606  0.47052326003321
C  3.37049991203094  -0.66052374486854  1.64583890399915
H  2.48011362438861  -0.69094876126467  3.75598433189405
Cl  5.23590541488455  0.76887403367483  -0.09180296623471
Cl  4.33348924276436  -1.99899991928863  1.30369881840434
N  0.83518612509781  3.51111120452480  -1.19901969976511
C  1.19797893615283  2.50029527042333  -0.47233296210754
O  2.40361860309107  1.65747892701685  -0.76288492174405
N  0.48472076032606  1.95245477011826  0.68394455114636
H  -0.06026895769111  5.34761594010765  -2.62756428342911
Cl  -2.30830025502936  6.86678982935785  -3.28095587977069

