70
 energy: -143.129443633569 gnorm: 0.103784026725 xtb: 6.6.1 (8d0f1dd)
O    -0.95656771    -1.54551042     2.48905596
H    -1.44730859    -1.62928755     3.30850259
H    -1.18790994    -2.31314052     1.96316292
O    -0.95707005     4.64629210    -4.08996235
H    -0.25085961     4.06845448    -3.79549792
H    -0.89285611     5.53469428    -3.73505925
O    -2.82251993    -1.87131520     4.55366203
H    -2.67035083    -1.53149006     5.43723549
H    -2.40532051    -2.73279208     4.60970302
O     1.31545143     2.19043011     3.03944536
H     1.65727986     2.78130399     2.36612496
H     1.95841579     2.20186030     3.75064479
O    -1.82054300    -1.41726841    -1.25201983
H    -1.48408386    -2.29668614    -1.43301404
H    -1.15486719    -0.89005189    -1.69727993
O    -0.05627630    -3.51879831    -1.74316260
H     0.67923666    -3.01254736    -2.09254583
H     0.35836389    -4.07694729    -1.08294849
O    -2.81850680    -2.75247595     0.74898361
H    -2.78264077    -2.14927629     0.00453667
H    -3.72058533    -2.74938902     1.07391958
O     1.90936677    -1.71017549    -2.94741121
H     1.59566434    -0.80751992    -3.02578149
H     1.81747754    -2.21885854    -3.75495961
O     0.81227187     2.64097467    -3.12264342
H     0.60285688     2.02225398    -2.42073982
H     1.29901784     2.26428018    -3.85784233
O    -0.26330484    -0.23155443    -3.28174129
H    -0.60622496     0.65191025    -3.42746117
H    -0.69735250    -0.76929425    -3.94640421
O    -2.60922149     2.59059558    -3.74081262
Cl    -3.52899095     3.03499844    -2.37784071
H    -2.17182967     3.40605146    -4.01340484
O     1.90412846     4.56330273    -0.31558958
Cl     2.83980464     3.92301938     0.95551701
H     1.26870508     3.89413171    -0.59672009
O     1.52801689    -2.20064702     3.67276236
Cl     2.29350225    -1.14228311     4.76595120
H     0.97211568    -1.54324533     3.23758081
O    -0.63515523     0.81942627     4.44225801
Cl    -2.03536901     1.78592698     4.36201709
H     0.06853804     1.36837564     4.07611810
C     4.48591239    -2.02850810    -0.43367006
C     3.51070332    -2.74682952     0.24728833
C     2.38289185    -2.08199290     0.68969379
C     2.12824730    -0.75870522     0.31425158
C     3.04874417    -0.10542121    -0.50477294
C     4.25781063    -0.71230114    -0.82454906
H     3.60694158    -3.79767883     0.48663935
H     1.54419507    -2.53797873     1.20414515
C    -1.96426795     2.00522585     0.93360834
C    -1.60060004     3.34708155     0.79559949
C    -3.32638089     1.73119992     1.08662898
C    -2.53569446     4.36800334     0.68164049
H    -0.59105922     3.70007582     0.65926017
C    -4.27150155     2.74235899     1.02860657
C    -3.87709244     4.05939277     0.84436216
H    -2.20010917     5.37423542     0.46666437
H    -5.30556116     2.43248678     0.95450533
Cl     5.85188751    -2.96352576    -0.94851243
Cl    -5.14136970     5.24192178     0.63024052
N     0.91447518    -0.17715047     0.71185245
H     0.40186208    -0.72585612     1.38409101
C     0.16353320     0.88830286     0.24099193
O     0.46173348     1.80320730    -0.48925518
N    -1.02930334     0.95278969     0.93470363
H    -1.25899362     0.15005655     1.49924765
H    -3.71233822     0.72930404     1.24368194
H     2.83506176     0.89690771    -0.83890111
Cl     5.23760163     0.12721829    -1.98237728
