70
 energy: -143.120592496155 gnorm: 0.116443328255 xtb: 6.6.1 (8d0f1dd)
O    -0.83027379    -2.86808445    -0.10031808
H    -1.17349250    -2.86531412    -0.99560086
H    -1.51112066    -2.89915942     0.57408579
O    -0.84594023     1.25259122    -2.80574367
H    -0.42151696     1.68516241    -3.54876847
H    -0.21430943     1.06499372    -2.10918945
O    -1.63941796     0.80398785     4.79393595
H    -1.75011592     1.27368354     5.62247112
H    -1.17426741     1.40525247     4.20959514
O     2.61909936     1.75221355     2.61525142
H     2.08801534     2.16238751     1.93038205
H     3.00506444     0.95527152     2.24748407
O    -3.38659016    -0.57973972    -1.91378720
H    -4.21168221    -0.44402772    -2.38298285
H    -3.28868899     0.29520130    -1.53400874
O    -1.06811186    -1.52378025    -3.75640169
H    -0.14467953    -1.29163777    -3.64361621
H    -1.63266830    -0.93266286    -3.25520741
O    -3.89195409    -2.66929977     0.12171824
H    -3.33177011    -2.36650690    -0.59511356
H    -4.65501506    -3.03418736    -0.32987183
O    -2.34787575    -3.51609404    -2.52179321
H    -1.96110244    -2.78703829    -3.00987342
H    -2.41065871    -4.17921241    -3.21148071
O     2.45487782     2.43913577    -2.56781693
H     2.67640597     3.31842715    -2.25619130
H     2.00107388     2.02477027    -1.83181351
O     1.87756607    -0.36176060    -4.15114542
H     2.54852888    -0.28407150    -4.83166849
H     2.30931399     0.08145683    -3.41869041
O    -3.04639819     2.30212293    -2.16502236
Cl    -3.28972687     2.56417691    -3.83033947
H    -2.20869575     1.83412632    -2.26411923
O     2.29177724     4.51285837     0.97159530
Cl     2.20440149     6.15421931     0.52498089
H     3.05440855     4.14569078     0.50881183
O    -1.03488403    -1.52134304     3.43283776
Cl    -0.27116115    -2.75634062     4.32315914
H    -1.17439130    -0.78364772     4.03858479
O     0.69109478     3.17978417     3.90228783
Cl    -0.20343313     4.61642118     4.09478395
H     1.59849838     3.48952469     4.00843682
C     5.11930806    -1.56015540    -0.35493093
C     4.23557159    -2.62195649    -0.50429942
C     2.88645116    -2.44272698    -0.26463337
C     2.39342366    -1.15921091    -0.00694898
C     3.28582038    -0.08792072     0.02239247
C     4.65297969    -0.26370054    -0.15754776
H     4.45627301    -3.64796304    -0.76780728
H     2.18597737    -3.26631610    -0.34849597
C    -1.85821783     0.88641601     1.22929035
C    -1.69718418     2.27413527     1.21584379
C    -3.13286697     0.37163371     1.48252111
C    -2.78096011     3.13177103     1.35570142
H    -0.73269179     2.68143044     0.95848984
C    -4.18845968     1.25770065     1.62277701
C    -4.05553129     2.63791667     1.58514322
H    -2.64193321     4.20447972     1.31960748
H    -5.14889005     0.81237706     1.84649883
Cl     6.79278593    -1.82513115    -0.72163016
Cl    -5.37658595     3.75969639     1.78274073
N     1.02125082    -1.03555810     0.26023372
H     0.51749075    -1.89751545     0.39811048
C     0.24914698     0.11437829     0.21210834
O     0.59682282     1.02939654    -0.49577395
N    -0.78780240    -0.02070605     1.11473866
H    -0.79878565    -0.87151301     1.65497460
H    -3.32796593    -0.69573282     1.49196157
H     2.90454785     0.91823700     0.08752990
Cl     5.77572421     1.05376474    -0.06226210
