%nproc=8
%mem=4000MB
#opt=(noeigen,calcfc,ts,recalc=5,maxcyc=200) freq B3LYP/SVP em=GD3BJ

ts-3844.gjf

0 2
O  1.91285707275386  0.00843680347308  8.09443120091754
H  2.43537644920703  -0.58754984235560  8.64390287292723
C  -0.54829449220290  0.88763891432082  3.94495151741679
C  -0.48526001254926  2.20011985226091  3.30605904311670
C  -1.75980611410728  0.25014003321022  4.08115198879218
C  -1.65737453971201  2.71390700615074  2.79710152929838
H  0.37625011742001  2.84581862331406  3.52541017768169
C  -2.88753855347165  0.71571105429882  3.37035867760585
C  -2.75426488710783  1.81704824332453  2.60282038671602
H  -1.84805660612054  3.70658323115356  2.40893258226304
H  -3.79683918885426  0.13140062803286  3.32271776456115
Cl  -3.83301544974201  2.22527596441495  1.32247393710358
C  1.57154067174121  -0.24852759654524  4.75143111157687
O  2.62376753046542  -0.72912744822026  5.01714479696491
N  0.56755008390781  0.18200417887409  4.27191252690189
H  -1.89447709183907  -0.60190479999057  4.73699257458440

