%nproc=8
%mem=4000MB
#opt=(noeigen,calcfc,ts,recalc=5,maxcyc=200) freq B3LYP/SVP em=GD3BJ

ts-3884.gjf

0 2
O  3.42326809579321  1.47735727956134  3.69190415880783
H  4.38544727239227  1.34540550634906  3.48083897467925
C  0.54960303843279  0.05156724473957  3.56502799449503
C  -0.13769966266631  0.76382867450624  2.58743127618656
C  -0.23520075150937  -0.56243298482335  4.59482645298492
C  -1.46559149603458  1.05407730114557  2.77057942543433
H  0.45295973181180  1.33596792458030  1.88632333625441
C  -1.54120691592463  -0.09725156662941  4.80894161648395
C  -2.25068174307755  0.63590996653590  3.83569178881040
H  -1.82835902504478  1.78168766860268  2.05598668005416
H  -2.08821665115430  -0.46807508429359  5.65409243820139
Cl  -3.93177574761760  1.04994307944558  3.88053896088935
C  3.24247998984645  0.14033502788090  3.31031259247795
O  4.19919037081009  -0.42797709810905  3.07791925486824
N  1.88375521467340  -0.22646201576501  3.41745451549667
H  0.26353700473795  -1.23773434041714  5.25804659159336

