%nproc=8
%mem=4000MB
#opt=(noeigen,calcfc,ts,recalc=5,maxcyc=200) freq B3LYP/SVP em=GD3BJ

ts-3894.gjf

0 2
O  3.03401767240085  1.49288203926899  3.03737623083321
H  2.22799398105029  1.76099120355373  2.62464119954783
C  0.64984194759088  0.26700658977293  3.88394195685309
C  -0.01048974087596  0.98957381518398  2.98241800716028
C  0.08536019337135  -0.54518824979305  4.87727272220592
C  -1.33885390864421  1.12264806913960  3.24207004910457
H  0.57905950158094  1.66858040396804  2.38757599730363
C  -1.21989388097634  -0.45247680295931  4.98974998520704
C  -1.96602201265667  0.40067678470091  4.22564385133307
H  -1.86533875213373  1.96889944181710  2.82388508036696
H  -1.67978022501328  -0.93443283987282  5.85114696132175
Cl  -3.65723230347608  0.46509044499649  4.53972936607482
C  3.05859744137467  0.07738369885875  3.29861432822977
O  4.14546447422060  -0.61064674028290  3.49093874847062
N  1.92211611214605  -0.25873783673333  3.70970320004422
H  0.62730684388108  -1.26623191663771  5.47133184320113

