70
 energy: -143.136980422150 gnorm: 0.110343931174 xtb: 6.6.1 (8d0f1dd)
O    -3.28647675    -1.08626709     2.84445467
H    -3.95544137    -1.41356392     3.44835957
H    -3.34004140    -1.42131673     1.94767640
O    -1.73331115     1.44025211    -1.69273575
H    -1.32607513     2.05579612    -1.08068739
H    -2.65762466     1.36607828    -1.44884877
O    -0.64582893    -0.55483170     3.72260203
H    -0.03786536    -1.23662362     3.43126255
H    -1.39515927    -0.65303684     3.13251885
O    -2.78775328    -1.71379703     0.40348539
H    -3.12088543    -1.02371529    -0.17283842
H    -1.85708980    -1.66053204     0.17905993
O     1.10015616    -1.11639799    -3.42615065
H     1.34027090    -0.18917339    -3.38212047
H     0.76526259    -1.28939620    -4.30777190
O    -0.21373876    -0.58562688    -0.20213626
H     0.04145029     0.30350281    -0.45445534
H    -0.50961611    -0.91529863    -1.05249652
O    -1.24227214    -2.66588133    -2.61340954
H    -0.45880992    -2.12067329    -2.70436323
H    -0.99881274    -3.49054522    -2.18915067
O    -4.18019813    -1.77246728    -2.63579982
H    -4.66908748    -2.34782819    -2.04479625
H    -3.26811483    -2.04140651    -2.51286793
O     1.12392217     1.79897936    -3.04583354
H     0.25686414     1.39083707    -3.07695969
H     1.19104643     2.08537703    -2.13325011
O    -4.14080430     0.58520448    -1.15978223
H    -4.28528818     0.03771481    -1.93355080
H    -4.94457611     1.00224962    -0.84456401
O    -2.04593318    -0.08286130    -4.17882607
Cl    -3.22561460     0.87219628    -4.95172902
H    -1.92600165     0.21935857    -3.27060474
O     3.13070362     3.13251104     3.79721750
Cl     2.67371583     4.68350637     4.33269888
H     3.36455441     2.65043152     4.59940217
O     1.87133130    -1.93109957     1.14739391
Cl     0.72837859    -3.15053036     1.47574048
H     1.39103719    -1.27722800     0.62551686
O     1.34616597     1.11003729     4.75142998
Cl     0.53687319     2.56717051     5.10209905
H     0.64629501     0.46274878     4.60382815
C     4.96165657    -0.59957980     0.19733988
C     4.67163484    -0.51261663     1.55345465
C     3.66972667     0.34073434     1.97495322
C     2.97157703     1.06926477     1.00607689
C     3.17873305     0.86222160    -0.35741677
C     4.21070373     0.03596406    -0.78722655
H     5.38191119    -0.81952917     2.30985870
H     3.46828534     0.45090847     3.03480158
C    -1.41809382     3.03170500     1.21688555
C    -1.70706971     3.86476836     0.13319931
C    -2.35514002     2.30722027     1.95912773
C    -3.03784279     3.96285262    -0.25292506
H    -0.86257122     4.32699748    -0.35211766
C    -3.67529502     2.48861386     1.58051256
C    -3.99321506     3.36885292     0.55670175
H    -3.30356169     4.63071251    -1.06205535
H    -4.48299668     2.04901025     2.15073861
Cl     6.27994510    -1.64752096    -0.21393030
Cl    -5.70380073     3.46093460     0.22801113
N     1.94269388     1.89364006     1.48705487
H     1.93160497     2.04260196     2.48377053
C     0.94575021     2.51575787     0.75228487
O     0.91276581     2.60076517    -0.45225658
N    -0.07356991     2.88619542     1.60786415
H     0.09353377     2.57442813     2.55164674
H    -1.94334920     1.71233194     2.76780582
H     2.57483255     1.35330286    -1.10314347
Cl     4.40550968    -0.39073476    -2.45615674
