70
 energy: -143.145778741195 gnorm: 0.114574717292 xtb: 6.6.1 (8d0f1dd)
O    -0.97262920    -3.77862430     2.56185184
H    -0.18538393    -3.24455420     2.68165179
H    -1.66627467    -3.14203160     2.38034600
O    -1.94137584     0.62051476    -1.93694402
H    -1.04075660     0.90575202    -1.77304317
H    -2.50953325     0.74630806    -1.17489987
O    -1.04806080    -0.44397720     4.54456250
H    -1.58865690    -0.42982101     3.75279607
H    -0.55143401    -1.26295887     4.58893830
O    -2.02839581    -0.74744520     1.52296843
H    -2.64841094    -0.16725084     1.07766548
H    -1.69698351    -1.47281580     0.99066979
O     1.15801209    -1.17265900    -2.89344684
H     2.05376886    -1.34601309    -3.18824738
H     0.60689660    -1.04412500    -3.66745513
O    -1.84134326    -2.04831653    -1.55165137
H    -1.82420161    -1.15056952    -1.88794657
H    -1.04860213    -2.53287126    -1.78852192
O     0.67046089    -1.52088504    -0.26680749
H     0.69926629    -1.27361954    -1.19274888
H     1.52454213    -1.91860113    -0.08874645
O    -4.56093700    -1.99101845    -1.90191437
H    -3.68870300    -2.29536237    -1.64516391
H    -4.63277011    -2.08557360    -2.85335320
O    -0.64111598    -0.89762028    -5.05926720
H    -0.11239149    -0.31432560    -5.60658459
H    -1.48047732    -0.43745174    -5.00399274
O    -4.23968459     0.18881085     0.24849420
H    -4.46920064    -0.54240118    -0.32769126
H    -5.08233277     0.61196253     0.42234758
O    -2.66504963     1.37250375    -4.27286646
Cl    -4.31728549     1.76070892    -4.41630855
H    -2.47164929     1.12117966    -3.36181272
O     2.19838299     2.39200301     3.81584574
Cl     2.90286669     1.79943939     5.24893182
H     1.44675409     2.91795623     4.11419840
O     1.07816358    -1.16369040     2.48616409
Cl     2.57537764    -1.97205079     2.56405737
H     0.75681585    -1.47304663     1.63081592
O    -0.11873758     2.47092959     4.75655999
Cl    -1.22312246     3.32034374     5.73635102
H    -0.36728411     1.53886794     4.74797087
C     5.42927141    -0.21781075    -0.38326200
C     5.36854748     0.18581685     0.94493973
C     4.20627194     0.76636638     1.41586087
C     3.15015362     0.91803681     0.51115041
C     3.26083248     0.64983449    -0.85292919
C     4.45348994     0.10976646    -1.32015094
H     6.18910437    -0.08517469     1.59615773
H     4.15317005     1.07741251     2.45337038
C    -1.39622195     2.69810399     0.66343083
C    -1.45787813     3.45824874    -0.50714849
C    -2.54075900     2.66832011     1.46530678
C    -2.66794467     3.94911184    -0.98092263
H    -0.57809109     3.62437529    -1.10776714
C    -3.72118974     3.27064582     1.06176082
C    -3.78409053     3.92534169    -0.15950874
H    -2.67817043     4.48388349    -1.92179984
H    -4.58202222     3.24347124     1.71675704
Cl     6.88151602    -1.04758603    -0.83896700
Cl    -5.21229356     4.74786375    -0.73074730
N     1.98985184     1.47845806     1.06717450
H     2.10205527     1.74760678     2.03191493
C     0.86238730     1.90286101     0.38195917
O     0.96613798     1.97646437    -0.81931210
N    -0.17799207     2.26100353     1.21718257
H    -0.23393361     1.79831753     2.11084933
H    -2.43478383     2.08441699     2.37373976
H     2.42952339     0.80999442    -1.52019146
Cl     4.58130468    -0.32013722    -2.99472415
