70
 energy: -143.150309246389 gnorm: 0.116820362403 xtb: 6.6.1 (8d0f1dd)
O    -2.96478091    -0.36692013     4.49240446
H    -2.72671718    -0.58867253     3.59046790
H    -3.12807878    -1.14761980     5.02455153
O    -0.91736366     0.54519480    -1.99340364
H    -0.34685152     1.27256012    -1.73885623
H    -1.68271129     0.55429248    -1.41591051
O     0.23633421     0.19195756     3.74964274
H    -0.33285904     0.02218157     2.99695836
H     0.31242530    -0.59642055     4.29002081
O    -1.18131544    -0.45991626     1.55325955
H    -2.02992218    -0.45394858     1.10697494
H    -0.59214742    -0.90968858     0.94504548
O     2.01031232    -1.93238083    -4.58189032
H     2.92194776    -1.63726007    -4.61600416
H     1.50406000    -1.18595451    -4.90730459
O     0.37962501    -1.63522001    -0.46380462
H     0.36780891    -0.88916395    -1.06596632
H     0.29227096    -2.41193444    -1.01916344
O     0.14956331    -3.09712977    -2.85979335
H     0.71975173    -2.76077141    -3.55339674
H     0.11417298    -4.04861739    -2.97274212
O    -2.73240977    -1.77668849    -2.12979346
H    -2.09607265    -1.59360452    -2.82325831
H    -2.89910486    -2.71534592    -2.23212373
O     1.10578633     0.74315557    -4.76971473
H     1.04281770     0.93350657    -3.83209005
H     0.22598198     0.66115616    -5.14194882
O    -3.16520890    -0.07611057    -0.21235235
H    -3.11694020    -0.76132044    -0.88130370
H    -3.65575438     0.66528046    -0.57157758
O    -1.81829967     0.57012402    -4.47038192
Cl    -3.42785102     1.09299708    -4.66302265
H    -1.54562715     0.59945917    -3.54551677
O     2.66932354     1.65225992     4.36063762
Cl     3.92693096     2.70577692     4.81855699
H     1.85666441     1.97166222     4.77070397
O     2.30366726    -2.33084137     1.25804609
Cl     1.40584756    -2.95425730     2.56435241
H     1.72918956    -2.07187168     0.52763785
O     0.17918811     2.35134756     5.39158422
Cl    -1.26529067     3.06192783     5.94810698
H    -0.01798146     1.69335245     4.71426992
C     4.77374606    -0.28513709    -0.37517076
C     4.54703732    -0.01506663     0.96884841
C     3.41991242     0.56571699     1.51836523
C     2.43887157     0.95840578     0.60171630
C     2.63782657     0.79037271    -0.76834840
C     3.76317268     0.12448179    -1.24013955
H     5.39454852    -0.26391888     1.59385419
H     3.37709543     0.88611109     2.55350282
C    -1.91874733     3.19803846     1.20136891
C    -2.11309445     3.85871917    -0.01420002
C    -3.08749766     3.01666843     1.94634200
C    -3.34952930     4.31068920    -0.45762037
H    -1.19947609     4.07646406    -0.54359093
C    -4.35787205     3.35531070     1.50984144
C    -4.47674353     3.92527543     0.25083693
H    -3.47351356     4.86749719    -1.37736382
H    -5.19870709     3.10725126     2.14407645
Cl     6.04687738    -1.30158191    -0.96777939
Cl    -6.04321136     4.31479094    -0.41028043
N     1.23182551     1.36560256     1.19058444
H     1.37711670     1.47465971     2.18192282
C     0.24700560     2.17528757     0.64711940
O     0.15581027     2.46838743    -0.52121717
N    -0.73643910     2.52005532     1.55388581
H    -0.68346081     2.11905299     2.47705349
H    -2.96578762     2.51575298     2.90116894
H     1.88214260     0.97869253    -1.51362844
Cl     3.99498315    -0.09594107    -2.94396668
