70
 energy: -143.142508349841 gnorm: 0.113944588156 xtb: 6.6.1 (8d0f1dd)
O    -0.08451943    -3.40231092    -0.68437332
H     0.41623804    -2.99071215    -1.39089044
H    -0.76471506    -3.83584109    -1.20275945
O    -2.73579817    -0.03540576    -3.55748316
H    -2.44709234    -0.87357219    -3.19215482
H    -1.97078618     0.47428821    -3.83007589
O    -0.50134114     0.41683105     2.89830046
H    -1.08310380     0.48018335     3.65782486
H    -0.40873420    -0.53505752     2.82995966
O    -2.37111533     1.07420116     4.78536579
H    -3.30392003     1.19882913     4.96889298
H    -1.90430558     1.70185774     5.33986947
O     1.63689241    -1.91714721    -2.87191680
H     0.92701032    -1.73650633    -3.49060532
H     2.23288922    -2.55580727    -3.26718790
O    -1.86222556    -4.64095853    -2.44970898
H    -2.63050162    -4.08505832    -2.59135936
H    -2.10174655    -5.53664816    -2.20535426
O    -0.24969645    -0.63984700    -1.41274069
H    -0.28412990     0.16129865    -1.93839973
H     0.67018440    -0.87430944    -1.27788827
O    -3.61777145    -2.68044223    -2.67088600
H    -4.55299392    -2.47130651    -2.70185942
H    -3.42506494    -2.21256228    -1.85646039
O     0.27339218     1.52421687    -3.35728883
H     0.95412811     1.41307661    -4.02331062
H     0.58721848     2.17967913    -2.73181294
O    -2.78466415    -1.31129391    -0.49242481
H    -1.94898487    -0.89911447    -0.71844822
H    -2.52508081    -1.82849733     0.27207202
O    -4.99952455     0.15687025    -2.40005096
Cl    -5.49578132     1.73116450    -1.97994494
H    -4.18033014     0.27043831    -2.89664861
O     2.52309175     3.21558137     3.06167515
Cl     3.26009453     2.19115454     4.20559002
H     1.97169667     3.74030605     3.65430875
O     0.17218289    -2.45594705     1.82397806
Cl     0.99816062    -3.49479637     2.89155320
H    -0.07573163    -2.88897274     0.99837932
O     0.44632608     3.40894329     4.59516423
Cl    -0.97423299     3.90865665     5.39106582
H     0.19641486     2.58908121     4.15249209
C     5.38970424    -0.68783335     0.13961400
C     4.54609221    -1.25554905     1.08657763
C     3.30569204    -0.67085111     1.25752973
C     2.87106365     0.38474236     0.44900552
C     3.74072772     0.95990536    -0.47715177
C     4.99327957     0.38384241    -0.65510342
H     4.88662854    -2.10269006     1.66728584
H     2.55330860    -1.09994360     1.91005887
C    -1.39168903     2.91665224     0.28433190
C    -1.33342359     3.76043458    -0.82765457
C    -2.61943186     2.72157986     0.92343392
C    -2.40354297     4.60697409    -1.08820184
H    -0.41614592     3.90190091    -1.37624818
C    -3.72574808     3.48821930     0.59572877
C    -3.58360680     4.46947400    -0.37433182
H    -2.30933372     5.36178141    -1.85808864
H    -4.68448878     3.30462771     1.06252790
Cl     6.97295717    -1.38141522     0.00746704
Cl    -4.88545557     5.46252371    -0.97571516
N     1.56890659     0.84078197     0.70581242
H     1.16743195     0.30633467     1.46009281
C     0.87557242     1.82719119     0.02236623
O     1.23689807     2.50612154    -0.90915490
N    -0.37556255     1.98987048     0.58490521
H    -0.53619858     1.34873129     1.34581560
H    -2.55365775     1.96816610     1.70155056
H     3.50603432     1.79516304    -1.11686150
Cl     6.18753711     0.87964220    -1.80978117
