70
 energy: -143.132351525424 gnorm: 0.104441088361 xtb: 6.6.1 (8d0f1dd)
O    -2.53817572    -1.54188064     2.92572487
H    -2.90115873    -2.37526865     3.23075894
H    -3.13471902    -1.36887007     2.19528519
O    -1.64354370    -0.01982157    -1.02851788
H    -1.28246635     0.59129597    -1.67310868
H    -2.56281374    -0.11425748    -1.28417883
O    -0.07594196     0.18082415     3.02260806
H     0.49449859    -0.27111287     2.39835721
H    -0.86588685    -0.35844921     3.08976218
O    -3.93341012    -2.52691649     0.54928368
H    -4.41512329    -2.02883180    -0.11344028
H    -3.02855949    -2.74037927     0.31472572
O     1.23829904    -2.42196639    -2.04964008
H     1.44988676    -1.56347392    -2.42053159
H     1.84003395    -2.53890583    -1.31236241
O    -1.15382416    -2.57430197    -0.48523924
H    -1.21217484    -1.63665531    -0.67694718
H    -0.44402285    -2.95201569    -1.00759344
O    -1.07082458    -3.33425955    -3.63638554
H    -1.15191544    -2.89367690    -2.78865407
H    -0.22271146    -3.07653650    -4.00192837
O    -3.82268542    -1.96422347    -2.45494970
H    -3.28443448    -1.54762976    -3.13028206
H    -3.76020098    -2.91879811    -2.38999234
O     1.43760420     0.90141500    -3.63533420
H     2.16141354     1.44717170    -3.94772540
H     0.69389892     1.50124350    -3.71562140
O    -4.56954993     0.97979659    -1.81238367
H    -4.68350609     0.09435071    -2.16215206
H    -5.38314924     1.32891851    -1.44426910
O    -1.04176356     2.09204320    -2.89395420
Cl    -2.40946530     3.10708475    -2.87830722
H    -0.40550886     2.42454517    -2.24958723
O     1.80471948     4.35422862     2.21404335
Cl     2.40406376     4.96501728     3.68675795
H     0.86924794     4.12483195     2.26749684
O     0.77514373    -1.90498288     1.23077726
Cl     1.40727346    -3.02216311     2.35036832
H     0.02785824    -2.42575282     0.91305223
O     1.59864239     1.70202086     4.54579623
Cl     0.75849257     2.58325692     5.73690165
H     0.95459906     1.04417206     4.25764486
C     5.04925572    -0.63444011    -0.02163184
C     5.10738728     0.02182455     1.20174868
C     3.99075687     0.76387566     1.53668983
C     2.90724746     0.89255407     0.66128132
C     2.89101141     0.30672842    -0.60419889
C     3.98790909    -0.49040486    -0.91045938
H     6.06189743    -0.01478752     1.71008402
H     3.88745691     1.26686754     2.49184624
C    -1.54676052     2.79586725     1.09132858
C    -1.78370137     3.87217792     0.23267158
C    -2.57288789     2.07168063     1.70490296
C    -3.07983730     4.14032638    -0.18898894
H    -0.91623064     4.38505887    -0.15049118
C    -3.83176482     2.28421966     1.16720567
C    -4.08392688     3.28902619     0.24478458
H    -3.32215911     4.97006791    -0.84025259
H    -4.61573184     1.62329054     1.51269006
Cl     6.29948845    -1.65964980    -0.64698909
Cl    -5.72887886     3.68719875    -0.17736646
N     1.87843843     1.71317506     1.14879351
H     2.09123387     2.12225240     2.04496791
C     0.81033424     2.29666914     0.48584382
O     0.75757935     2.55866801    -0.69220873
N    -0.19548399     2.54817846     1.39871082
H    -0.00934641     2.04184880     2.25008097
H    -2.39711825     1.27006379     2.41478994
H     2.00407861     0.47769810    -1.19248839
Cl     3.90721866    -1.23005111    -2.47626961
