70
 energy: -143.133329368458 gnorm: 0.119510340774 xtb: 6.6.1 (8d0f1dd)
O    -0.82952335    -0.31107528     1.68527535
H    -1.73753631    -0.17239176     1.41028924
H    -0.35979286    -0.15719635     0.86368346
O    -3.16474304     0.04447745     0.17840428
H    -3.33832751    -0.83148685    -0.17072861
H    -2.84012347     0.51866390    -0.58912905
O     3.30476910    -2.05524216     2.65436795
H     3.49199549    -2.99555081     2.64414379
H     2.65918381    -1.94462114     1.95413870
O    -4.38772974    -0.57669080     2.33995467
H    -4.32540422    -0.43392141     1.39387253
H    -3.80330203    -1.32354863     2.48132684
O    -4.23770804     0.76255961    -2.73405194
H    -4.76393497     0.64622950    -3.52707887
H    -4.41031497     1.65445852    -2.42735782
O    -0.35193717    -1.02961250    -0.78955750
H    -0.02554774    -1.00362253    -1.69074141
H    -0.82275282    -1.85566688    -0.66583910
O    -1.72620423    -3.03804341     2.45490933
H    -1.18951055    -3.48173311     3.11402752
H    -1.44949639    -2.13205863     2.60310826
O     0.82553356    -0.96499051     3.89053637
H     0.53830163    -0.82775692     2.98610123
H     1.66930106    -1.40539715     3.77462732
O     1.35115946    -1.31460758    -3.46645933
H     2.29773264    -1.16228170    -3.45485539
H     0.87657357    -0.50707730    -3.67140052
O    -2.29564543    -2.77903029    -0.40015041
H    -2.58917024    -3.53721123    -0.90842512
H    -2.02203168    -3.12577381     0.45087411
O     0.13830035     1.33180299    -3.35769214
Cl    -1.52999898     1.20037549    -3.04041245
H     0.40543361     2.02025035    -2.73699377
O     1.53432991     1.44036813     4.14644539
Cl     0.56382358     2.84007243     4.13595816
H     0.99977192     0.70097772     4.45971315
O     1.82054273    -1.23591753     0.44433997
Cl     2.66571572    -2.26795572    -0.61478401
H     0.88995031    -1.17909749     0.19663983
O    -4.21403012     1.05445162     4.19098717
Cl    -2.55663766     1.33554600     4.46520790
H    -4.21657332     0.46941149     3.42397371
C     5.38030699    -0.23872933    -0.18361309
C     5.03947391    -0.00903760     1.14371392
C     3.87214565     0.68727264     1.39308448
C     2.95437768     1.17944915     0.45908497
C     3.32342533     0.90529322    -0.85755386
C     4.54166102     0.30427667    -1.15265107
H     5.55980368    -0.44011342     1.98885619
H     3.68933460     0.83304122     2.45201183
C    -1.43190315     3.34255209     0.42621469
C    -1.49901891     4.12151046    -0.73162674
C    -2.61975178     3.07004921     1.11076924
C    -2.71619498     4.66364414    -1.12436459
H    -0.65263933     4.25051236    -1.38688708
C    -3.85695721     3.49390511     0.65389813
C    -3.86774668     4.39357687    -0.40182760
H    -2.74669326     5.26747944    -2.02202153
H    -4.74887849     3.22996621     1.20671251
Cl     6.70976880    -1.27260615    -0.59451270
Cl    -5.30427906     5.18280939    -0.99857429
N     1.75275449     1.63357753     1.02424343
H     1.70502422     1.30566043     1.97605587
C     0.91066526     2.44156228     0.27667367
O     1.11939181     2.56302107    -0.90692900
N    -0.28305565     2.69808742     0.92279954
H    -0.28924816     2.42149820     1.89197862
H    -2.56909894     2.50416198     2.03523123
H     2.76278952     1.16305047    -1.74141677
Cl     4.81103188     0.22910114    -2.86353891
