%nproc=8
%mem=4000MB
#opt=(noeigen,calcfc,ts,recalc=5,maxcyc=200) freq B3LYP/SVP em=GD3BJ

ts-5040.gjf

0 1
O  0.29838171645769  1.87028136562172  -2.96856337700312
H  0.26784071518195  2.74498132041153  -2.65718672675225
O  2.17853017384767  4.00487248049997  -1.41343318689284
Cl  3.26459103298538  3.77795109410232  -0.32634384199335
H  0.73531584182561  2.37028487489629  -3.97669152956870
Cl  -2.03019008099296  1.35371106287293  -0.42263948488763

