%nproc=8
%mem=4000MB
#opt=(noeigen,calcfc,ts,recalc=5,maxcyc=200) freq B3LYP/SVP em=GD3BJ

ts-1523.gjf

1 2
O  1.76734585389395  -2.41977902310497  -2.07274054061596
H  2.50220039407233  -2.48370262998526  -1.47786217089262
O  -3.61859486196186  -3.88149759250572  -4.62934448061774
H  -4.40628031011926  -3.32564874934788  -4.79899324937543
C  0.92110370155386  1.99045747388148  2.61270135046759
C  1.96173437574323  1.04655976711481  2.29162539478353
C  1.69603508586481  0.35177350481334  1.14721904362369
C  0.63796128484182  0.67416387069784  0.26468136608002
C  -0.30709248062194  1.62912274985058  0.68977155243971
C  -0.27757656032595  2.31209723993535  1.88633423783657
H  2.83773270377321  0.90797495935532  2.89452734226906
H  2.28963276254089  -0.54247966986527  0.94386994475598
C  -1.73706054874927  -2.18973579387671  -1.71019310060008
C  -0.98967170173576  -2.30852066937878  -2.92742243031417
C  -2.91886776535888  -2.87376282178758  -1.35564661763434
C  -1.62385565315305  -2.80114217480441  -4.03328392601269
H  -0.01353205797359  -1.85544611795705  -2.94512921619761
C  -3.37434218588803  -3.53961063061622  -2.45605186639927
C  -2.79712985771611  -3.43259857390132  -3.76692793289635
H  -1.29955740985776  -2.90436658926827  -5.06918463070318
H  -4.14299671462869  -4.26160549129649  -2.46222742667607
Cl  1.09323168893766  2.77312464339732  4.23895536904514
N  0.63791327845152  -0.06642664469533  -0.94185665207335
H  1.33235426477661  -0.82399906778219  -1.16962671858639
C  -0.70355434911951  -0.25697792213345  -1.33514220760069
O  -1.36209794251526  0.62154605572877  -1.94934353765981
N  -1.30502927492693  -1.38234022388502  -0.83624437989364
H  -3.21043521649628  -3.05253080308882  -0.35523133041432
H  -1.12403356090934  1.83584527373807  -0.01080782148469
Cl  -1.60188962693514  3.06904966756387  2.84878995543227

