%nproc=8
%mem=4000MB
#opt=(noeigen,calcfc,ts,recalc=5,maxcyc=200) freq B3LYP/SVP em=GD3BJ

ts-1573.gjf

1 2
O  4.82945632250496  1.53323457546935  -3.67363552304600
H  4.69754664168158  1.22353762044550  -2.76662819047556
O  -2.35172355951325  -5.58067380725852  -2.45131899103239
H  -1.72318154294246  -6.31338514723609  -2.28264331987225
C  1.34740273158304  1.43512189181341  3.19302844983463
C  2.20026874212037  0.86565822791631  2.33564458747843
C  1.90877229571040  0.90022029194312  0.93304170969092
C  0.70759451881475  1.22146171008455  0.31899928120642
C  -0.03273391111026  1.84596610370173  1.27362172544592
C  0.12318614040617  1.93576734926273  2.63367075663282
H  3.02264302673357  0.28534744796762  2.66954921572482
H  2.72865813474470  0.47279723741164  0.35369749683532
C  -1.69381622690390  -1.38476951109277  -1.87685328985481
C  -0.85086918995020  -2.22862857832786  -2.72542710766681
C  -2.90839917074954  -2.13383964613204  -1.41970593946397
C  -0.94593320444677  -3.61916290241024  -2.73076672285970
H  0.00874449803191  -1.77178023784783  -3.20869717103587
C  -3.09022472820847  -3.47025440692813  -1.65363064028877
C  -2.06809925179334  -4.27655148173474  -2.20584728333805
H  -0.31747393437151  -4.16888258929560  -3.44839457024300
H  -4.01834742651328  -3.98289439153026  -1.49715616327144
Cl  1.16974033698475  1.81882271571762  4.91404812722983
N  0.36240111939691  1.17647765032444  -1.01103999035044
H  3.95148296797902  2.30425473177942  -3.66745583363621
C  -0.30519014076356  0.67992471864229  -2.10949797455097
O  0.04011268835800  1.15959948829275  -3.19811787637376
N  -1.41054694482460  -0.09503544626219  -1.78173066479190
H  -3.79879019754293  -1.67910677114039  -0.97413217602928
H  -1.00344543994003  2.23751376844118  0.96363484235972
Cl  -1.22610103979093  2.76562693030770  3.44639472105299

