70
 energy: -143.131004889913 gnorm: 0.114982005564 xtb: 6.6.1 (8d0f1dd)
O    -2.28518321    -1.69040648     1.84960559
H    -3.02751566    -1.96353776     1.30768321
H    -2.41673396    -2.18914881     2.65786865
O    -0.74797686     2.94485145    -2.71986319
H    -0.35423224     2.44019133    -2.00598495
H    -0.89063569     3.82561120    -2.36879511
O    -0.47651239    -0.40715844     5.48964143
H    -1.19256909     0.07151557     5.06836645
H    -0.30886174     0.06945227     6.30454870
O     0.82682507     1.63187260     2.81845522
H     1.12521042     2.07721903     2.02348873
H     0.76892023     0.69315370     2.63192825
O    -3.66999021    -2.16048029    -1.82609333
H    -2.80419354    -2.57201636    -1.84541634
H    -3.45636672    -1.34548563    -2.28379064
O    -0.83734002    -1.37071467    -2.55173106
H    -0.83782100    -0.52760137    -2.09511557
H     0.04309068    -1.59436484    -2.85858906
O    -4.49082467    -3.07483147     0.61900203
H    -4.36576414    -2.67413960    -0.24305558
H    -4.95309558    -3.88554734     0.39903847
O     2.34451151    -2.97783545    -2.65784437
H     2.09742089    -2.11830641    -3.00352373
H     2.88158262    -3.44356745    -3.30126092
O     2.48146166     2.54677384    -2.68646379
H     2.13474115     2.06209638    -1.93532382
H     1.70590244     2.94905632    -3.08145053
O     1.84370488    -0.12627294    -3.87814333
H     1.19380098     0.40566815    -4.34074676
H     2.23171057     0.29613828    -3.10979534
O    -3.22053933     1.90680009    -2.90024664
Cl    -4.10787387     3.15036529    -2.14702342
H    -2.29497622     2.14377565    -2.76697274
O     3.57454798     4.59441437    -0.86132934
Cl     3.36329698     3.64913787     0.53973811
H     3.10143938     4.12187646    -1.55664458
O     1.04297865    -0.89805828     3.48302306
Cl     2.67929164    -1.36783650     3.53735574
H     0.70017413    -0.80547934     4.37996248
O    -1.26952780     2.00792483     4.87484156
Cl    -2.84134498     2.13123113     4.23036725
H    -0.66729043     1.96266016     4.12261198
C     4.54321214    -1.88567823    -0.49959091
C     3.56024699    -2.72499708     0.01035599
C     2.29124165    -2.21730754     0.21423261
C     2.01834106    -0.84547432     0.19210326
C     3.01365825     0.03539094    -0.23017098
C     4.22492780    -0.53478747    -0.60450249
H     3.78430505    -3.77657210     0.13210511
H     1.45270340    -2.87066406     0.42864887
C    -2.08566118     1.72938742     0.98348210
C    -1.68214221     3.03191334     0.67938323
C    -3.41646642     1.42741879     1.28618578
C    -2.62295428     4.05356336     0.65157250
H    -0.66757629     3.26817083     0.40152642
C    -4.31235127     2.47498481     1.42423680
C    -3.91661426     3.74925889     1.04515858
H    -2.26014096     5.05770124     0.47434721
H    -5.31810267     2.23384329     1.74220840
Cl     6.14870161    -2.38574671    -0.92095006
Cl    -5.07043776     5.05505006     0.96628745
N     0.67456907    -0.57190005     0.49037981
H     0.10210461    -1.19591763     1.03686057
C     0.04020401     0.63105917     0.22338865
O     0.45531093     1.48926861    -0.51849886
N    -1.23470146     0.63140911     0.75524326
H    -1.43967000    -0.22718248     1.24171672
H    -3.71945676     0.39516277     1.42784878
H     3.01629660     1.11310742    -0.25219742
Cl     5.53065732     0.53012371    -1.01240426
