%nproc=8
%mem=4000MB
#opt=(noeigen,calcfc,ts,recalc=5,maxcyc=200) freq B3LYP/SVP em=GD3BJ

ts-4522.gjf

0 1
O  -1.15296894408508  4.11932503918967  -0.73986659435663
H  -1.25269760643378  3.53261494586434  -1.53901866436863
Cl  1.53021308575141  6.10997784115410  -1.33829587286171
Cl  -1.00248537949659  1.40285465346640  0.26562955414756
C  1.28173616856354  4.39996059192038  -1.23349172205467
C  0.11293395250832  3.95832429603650  -0.25908752681416
C  0.54171781936918  2.58021989948163  0.27023845727516
C  1.47071271235231  1.77653089419569  -0.46855718840672
C  2.28684845595958  2.20707029062633  -1.54151922091534
C  2.24349299792752  3.60468862707863  -1.80396294256814
H  0.16759262539645  4.62090953351015  0.60786229745809
H  0.84567139013318  2.53189663443693  1.30973933117418
C  0.95095046632175  -2.17952320347851  1.34377499127956
C  1.15447150009420  -3.61501134713124  1.27718397030775
C  -0.42630193041319  -1.77080248360791  1.72366697659607
C  0.26073292046861  -4.61482618550458  1.64877116454779
H  2.15097164129468  -3.79431861966458  0.86674081418166
C  -1.25735174338256  -2.83008000615794  2.30578616524577
C  -0.94907070868965  -4.16068775966490  2.08914798070403
H  0.67579271942551  -5.61766389928940  1.73354367812639
Cl  -2.24724535947874  -2.23706843929690  3.51881636225894
Cl  -2.56979156514273  -4.95609680874235  2.40358379611578
N  1.86162962068053  0.57665346956210  -0.19419215735351
C  1.89367142703835  0.17834806865527  1.00837772447905
O  1.80537761790414  0.69373743302545  2.12182910596114
N  1.89072323377711  -1.28990746347605  1.15340737389953
H  -0.44408350379317  -0.73697067689267  1.98393651659240
H  3.27941710218529  1.81237032483504  -1.39512123678998
Cl  3.62094071372831  4.09756904922445  -2.77980609940220

