%nproc=8
%mem=4000MB
#opt=(noeigen,calcfc,ts,recalc=5,maxcyc=200) freq B3LYP/SVP em=GD3BJ

ts-2126.gjf

0 2
O  -2.01842362152286  0.51402012631228  1.25088825377479
C  -0.84016749864063  -4.41185179966540  0.78167643045897
C  -0.72836237058695  -3.07775177967877  0.61286186268506
C  -0.93037776673897  -2.30394242743263  1.77619482279440
C  -1.20245497486129  -2.80449813842736  3.19662463645250
C  -1.34008056804531  -4.16885468210093  3.27840980623320
C  -0.99577261534486  -4.86399568004570  2.11000940756851
H  -0.67229144021446  -2.72490245385092  -0.41922965814222
H  -0.97842259132587  -1.27312063923116  1.46451682919223
C  -0.43970226415738  1.09221453696880  2.75185520924219
C  0.72384316677685  1.84594816610440  2.73715642805666
C  -1.66407046522928  1.49094271730632  2.07704792112705
C  0.72968676667444  3.13861748892102  2.45134702691740
H  1.66899085186904  1.36055290954389  3.09906433184631
C  -1.54120285477485  2.83583672240360  1.38567874609208
C  -0.45400323441133  3.64552190520156  1.67141906250516
H  1.62011321384043  3.76777135942460  2.47482444808982
H  -2.26585786667404  3.24914829821306  0.70803964720544
Cl  -0.86180770058256  -5.53412592046408  -0.41842740273197
Cl  -0.08663056679521  5.24626888188661  1.16182462781926
N  -1.18998304652658  -2.05487505617513  4.24825492154573
C  -1.59943043503713  -0.77439307555824  4.00370847705127
O  -2.54549279981842  -0.22494062002632  4.54473524203983
N  -0.51152960898269  -0.18216550149572  3.15037085239871
H  0.39083528224646  -0.59240345411756  3.29525924408551
H  -2.32874317957067  1.72302103408769  2.96203073117513
H  -1.71172187488393  -4.66759063744094  4.15963298403912
Cl  -1.05892351737850  -6.46559757966343  2.36950301941833

