%nproc=8
%mem=4000MB
#opt=(noeigen,calcfc,ts,recalc=5,maxcyc=200) freq B3LYP/SVP em=GD3BJ

ts-2156.gjf

0 2
O  -2.18146543561751  0.39737526404066  2.59650090293629
C  -0.60771896337208  -4.36763979809446  0.65639053530069
C  -0.91325179606263  -3.01436706481377  0.31259042884039
C  -1.09550087106843  -2.04975425088294  1.25004106289113
C  -1.47970778960779  -2.46566018791253  2.53867017089832
C  -1.56252241548506  -3.85210567776441  2.74657820773239
C  -1.08050367638341  -4.85752700993133  1.96541300513712
H  -0.66171388734503  -2.81393073338486  -0.70927326868410
H  -0.95678053231448  -0.99372480043913  1.03878849230263
C  0.03467808569670  0.87313408737040  3.38009470795959
C  1.21709894747624  1.54199159011269  3.10162723129482
C  -1.26309092035609  1.45788253984788  2.80445181343350
C  1.14478951943042  2.73448650739420  2.29745010524788
H  2.19645614197853  1.18082296088725  3.50450621345357
C  -1.16084412884908  2.40874804429889  1.58621255361207
C  -0.02024208985537  3.11901586244658  1.50781302144563
H  2.09528930578438  3.27022942328060  2.27618387392660
H  -2.15049178108424  2.58758515732674  1.20393700357089
Cl  0.32670129820872  -5.38155333919030  -0.35281089309777
Cl  0.28000209705661  4.56808825426980  0.46955656694210
N  -2.06996404860454  -1.84790647162657  3.61152574434154
C  -2.01885493790960  -0.59621134603806  3.84743284223560
O  -2.26278259026167  -0.08682367833689  4.90925581373874
N  -0.06089137085802  -0.39140891600388  3.59265219039324
H  0.83220410158885  -0.61660569191679  3.96196732266725
H  -1.61266303198826  2.01216849931754  3.70017010331608
H  -2.02771377842674  -4.30294896125664  3.62168484409710
Cl  -0.66561200511687  -6.37448383012880  2.68418429844942

