%nproc=8
%mem=4000MB
#opt=(noeigen,calcfc,ts,recalc=5,maxcyc=200) freq B3LYP/SVP em=GD3BJ

ts-2312.gjf

0 2
O  -0.04005320186349  -1.83085327406322  -2.82449339439841
Cl  -1.87279574724138  -1.05202480223650  -2.68088020982336
C  2.94131047401669  -2.83607718005558  -4.65413737625021
C  3.79717286815825  -1.60298520712697  -4.31547299357163
C  3.36564560407312  -0.62227710011600  -3.44383784653675
C  2.09491182232141  -0.64371015856987  -2.85204221337819
C  1.01083666045273  -1.41018547255205  -3.54958894464653
C  1.65435672979134  -2.62165906918817  -4.31187600826985
H  4.81059012797028  -1.78870361412242  -4.75813771960367
H  4.13178414579799  0.08438926693410  -3.06540094278102
Cl  3.80729644768147  -4.28232348849982  -5.10442025890340
N  1.70882634420456  0.32881314618018  -1.99257471290946
C  0.73636228327415  0.38598776715659  -1.21889839930895
O  -0.08461653188105  0.67302893337415  -0.38078999371816
H  0.66326897651116  -0.72078305908553  -4.38745355104198
Cl  0.41795571087333  -4.17098161408860  -4.49168312976589

