%nproc=8
%mem=4000MB
#opt=(noeigen,calcfc,ts,recalc=5,maxcyc=200) freq B3LYP/SVP em=GD3BJ

ts-2322.gjf

0 2
O  -0.33431095043584  -1.86263401630455  -3.07860949870748
Cl  -1.89477368423068  -0.32809637824536  -1.96301268432789
C  2.73023311222223  -2.49099742984197  -4.90490650804730
C  3.54985786676572  -1.22586227865956  -4.73059671828730
C  2.82891580022440  -0.37294830597271  -4.03891922210144
C  1.59849940459238  -0.57001769626645  -3.45120504765595
C  0.52370204860325  -1.42281977230137  -3.95464607267204
C  1.46100537628615  -2.70154246477010  -4.43947067099999
H  4.56575383755363  -1.20941996912172  -4.99845548261647
H  3.38011496116307  0.42353732039034  -3.53180719875862
Cl  3.49247906935083  -4.02521625476302  -5.34873061643387
N  1.41509071697765  -0.06564649285283  -2.20471517841054
C  0.59361945562763  -0.00995751274140  -1.33569557344437
O  0.04586616632886  0.35254682647387  -0.39862050814828
H  0.07115505336590  -0.82281412372443  -4.81211745952084
Cl  0.50212569475805  -4.08699753765703  -4.27698095705214

