70
 energy: -143.103028539045 gnorm: 0.097353892927 xtb: 6.6.1 (8d0f1dd)
O     1.52939399    -3.21388587    -3.11743085
H     1.20604682    -2.44249046    -2.64867318
H     0.96925378    -3.44300913    -3.86112713
O     1.32844258     0.25077225    -4.74098398
H     1.07565794     1.14658083    -4.51084117
H     2.23987118     0.22138762    -4.44471970
O    -0.53550489     3.05392557     3.66485390
H    -0.97394970     2.43447554     3.07886208
H    -1.00948244     3.88452786     3.73401666
O     2.18872925    -1.18798913     4.96442878
H     3.05752416    -1.14221349     5.36746597
H     2.05177586    -0.26085072     4.76195262
O    -5.36269749    -0.02397485    -1.83695051
H    -5.37573810     0.92969199    -1.73851937
H    -4.47948814    -0.27392495    -1.55981463
O    -1.18609587    -2.31861697    -4.07616422
H    -2.12868480    -2.35351421    -3.90398330
H    -1.02802283    -1.65033665    -4.74530829
O     1.57024007    -4.66665334    -0.39118316
H     1.63585825    -4.39891066    -1.30952163
H     1.96401435    -5.54001582    -0.35221669
O    -2.24326180    -1.11385306    -0.33791920
H    -2.81975361    -1.88000321    -0.33486633
H    -1.40523852    -1.46045350    -0.64924161
O     1.44582698     1.84257631    -2.68769998
H     2.35451495     2.05587630    -2.46831928
H     0.88464747     2.11159686    -1.95828699
O    -0.22296164    -1.05570890    -2.00683260
H     0.20065873    -0.90799698    -2.85421995
H     0.30409785    -0.62450384    -1.33184461
O    -2.34517952    -0.10441801    -3.56440520
Cl    -2.90333182     1.47377653    -3.87893695
H    -1.80777234    -0.22654657    -2.77265742
O     1.30388769     4.66253749     2.07869014
Cl     0.60810721     6.13702972     1.58581403
H     0.72088896     4.06168318     2.55793296
O    -0.52049437    -0.72125003     4.48177923
Cl    -1.05855349    -1.66158614     3.16746412
H     0.33622096    -1.05568000     4.77295199
O     1.70572188     1.50369488     4.21816600
Cl     2.97641525     2.42337529     3.55432330
H     0.95812121     2.10054853     4.09387994
C     4.75693378    -0.80895805     0.20672389
C     4.17840672    -1.46367556     1.28717467
C     3.00656565    -0.97002253     1.82826996
C     2.33110786     0.08083791     1.19871458
C     2.96805685     0.80534111     0.19159664
C     4.13697227     0.29856161    -0.36447236
H     4.72419715    -2.28970807     1.72377286
H     2.54316969    -1.51110665     2.64588090
C    -2.33387242     1.67259867     1.24004337
C    -2.47547019     2.94535179     0.68153907
C    -3.49522885     0.96177688     1.55601934
C    -3.76077588     3.45502237     0.54776789
H    -1.66830379     3.63409766     0.49054804
C    -4.75712501     1.45368795     1.26497996
C    -4.92623864     2.73903861     0.77166788
H    -3.92544345     4.45404453     0.16544011
H    -5.69076420     0.95478628     1.48904705
Cl     6.27307155    -1.36484708    -0.42376967
Cl    -6.48861458     3.50198639     0.63198243
N     1.03232212     0.33812857     1.66400169
H     0.64809541    -0.21007270     2.41739398
C     0.12255626     1.17466160     1.03682327
O     0.44030810     2.06310391     0.28254325
N    -1.13798651     1.01105048     1.57767146
H    -1.32441453     0.07865499     1.91193380
H    -3.44989761    -0.08070314     1.85368449
H     2.46849735     1.66603817    -0.22265670
Cl     4.94754067     1.24226107    -1.57184944
