%nproc=8
%mem=4000MB
#opt=(noeigen,calcfc,ts,recalc=5,maxcyc=200) freq B3LYP/SVP em=GD3BJ

ts-2298.gjf

0 2
Cl  1.48202378031902  -1.94127257716455  0.08853279905810
C  -1.52121480259560  -2.44580443449891  -1.62943770095815
C  -1.95590514945265  -3.04405460751905  -0.34732192565517
C  -1.81087857400465  -2.44573431409236  0.90754230935080
C  -0.72787833343111  -1.49219986319849  1.08337555213202
C  -0.00130373274644  -1.06213551680519  -0.19734569432010
C  -0.56631977814397  -1.57519041020979  -1.50933125579328
H  -2.62913481100043  -3.89182715253902  -0.36732878848437
H  -2.28579235506596  -2.85064954031716  1.78943024482258
C  -2.94290203110844  0.17329710376796  2.67245585731520
C  -2.36778705627885  0.79167975419846  1.50091379855718
C  -4.08125011156376  0.81534150896998  3.28257469294907
C  -3.18306481120002  1.83406033403630  1.07775072303872
H  -1.90924876429932  0.15820263645027  0.77302622199535
C  -4.89966399035144  1.68439604581377  2.68846720782024
C  -4.31263956240514  2.40849260061917  1.73599970650174
H  -2.97598152729449  2.41308126867367  0.20247026246959
H  -5.94309651859218  1.79394891421997  2.95132100943235
Cl  -2.64328284766371  -2.52020244569553  -3.09757991575693
Cl  -4.78533809234486  3.89527821230478  1.20904572595358
N  -0.28143760966244  -1.08393921149107  2.29047569563695
C  -1.03832169270123  -1.01748637247082  3.49240909195696
O  -0.49184901302642  -1.07535565157233  4.59623392251205
N  -2.26354885088237  -0.52150292485282  3.57171375299099
H  -4.13017912449631  0.85767399030282  4.40033748639335
H  0.24769777472805  -0.03069212996343  -0.30153841712099
Cl  -0.20362574455723  -0.58268151974377  -2.97253902429783

