%nproc=8
%mem=4000MB
#opt=(noeigen,calcfc,ts,recalc=5,maxcyc=200) freq B3LYP/SVP em=GD3BJ

ts-1951.gjf

1 1
O  1.06895316328703  -3.92549953310739  4.28877204652272
H  0.41821393836652  -4.15627359547637  4.95728117527449
C  0.27663967795513  0.78465615180918  -3.22665232235767
C  0.29086136762471  -0.56256264934172  -3.38449788364259
C  0.47933519277341  -1.56282721121117  -2.40474013198703
C  0.34915824145605  -1.12000304289435  -1.21418245323132
C  0.30249782330619  0.27298784190436  -0.86250371680362
C  0.30236571852526  1.19801432686268  -1.86117863331601
H  0.58746812795760  -0.97204408448831  -4.32026506877884
H  0.94526332431465  -2.50908975686810  -2.58963987288987
C  -1.60679834314642  -4.02462772852884  1.72744519231098
C  0.64276192468873  -4.11457725781031  3.02994925020037
C  -2.98068115111134  -4.45370747499353  2.01946611787008
C  -0.85970001271146  -4.38837921549868  2.93271286350106
H  1.33932170294265  -4.33153677294487  2.18419188401396
C  -2.90423711811672  -4.93920927654746  3.42782302959333
C  -1.63147076558032  -4.68573535530629  4.01272705978382
H  -3.72809740170161  -5.25681374961082  4.09893289442822
Cl  0.06992805233860  1.61861638032522  -4.78287485003244
Cl  -1.47082351684874  -4.71627658693520  5.81027376703164
N  0.39501612723225  -1.74093223389908  -0.01218033245599
C  -0.38610048882753  -2.28719416024285  0.94483390909613
O  -0.29163265390103  -1.94805012307917  2.16014248707614
N  -1.44527601791125  -3.19416269244051  0.60594442711032
H  -2.09078339764476  -2.78682241502865  -0.03343431438502
H  -3.61496271215087  -4.73618801603588  1.18879329602616
H  0.31054067005456  0.58295504179141  0.17063017443455
Cl  0.89255409221381  2.90819669262199  -1.67212564189239

