%nproc=8
%mem=4000MB
#opt=(noeigen,calcfc,ts,recalc=5,maxcyc=200) freq B3LYP/SVP em=GD3BJ

ts-1961.gjf

1 1
O  1.20499640065397  -3.71039597752280  4.08763525484652
H  0.91955635854322  -3.84803374394284  4.97221181591826
C  0.56429978401778  0.37942543798554  -3.16651290436437
C  0.40298217655608  -1.02053443997032  -3.18747523305264
C  0.33695684374210  -1.65217664742082  -1.93708901825080
C  0.44465519320936  -0.94132965492469  -0.68624860341278
C  0.80187030614770  0.47614901179163  -0.74017501389716
C  0.69931297252154  1.16240364614687  -1.94375567875249
H  0.12993247191704  -1.70450621072301  -4.01016961819219
H  0.52099313542702  -2.72520685626663  -1.81103276287562
C  -1.67569876145685  -4.28048068334860  1.88468294082168
C  0.36620617004854  -3.87179170875232  3.08762488243064
C  -2.99074538467952  -4.54854154236454  2.10085228776464
C  -1.02046808899388  -4.51965108799777  3.01744564615938
H  0.90141615723223  -4.30758784214187  2.18026242411958
C  -3.16100614955915  -4.80127678395946  3.49299227246486
C  -1.85196710075021  -4.67583428355786  3.97089399526950
H  -4.07632363862415  -5.22645124794479  3.82252432769216
Cl  0.26332504625195  1.66770508954844  -4.46041143301320
Cl  -1.18779575803652  -4.94413846610654  5.60068059836721
N  0.12905195084591  -1.76009642855098  0.30390938490238
C  -0.34131199193900  -2.52076603649488  1.13923308396630
O  0.06501107318890  -2.25862468423836  2.38739965553531
N  -1.10839568451428  -3.56122588816513  0.99613817745172
H  -1.26610726167789  -3.76428442699428  0.02178956286486
H  -3.78730830178876  -4.93702672241373  1.51305816326889
H  1.11824945895483  1.19876400800770  -0.01331533751650
Cl  1.14437885231702  2.79500296234147  -1.90388950817885

