%nproc=8
%mem=4000MB
#opt=(noeigen,calcfc,ts,recalc=5,maxcyc=200) freq B3LYP/SVP em=GD3BJ

ts-1991.gjf

1 1
O  0.51414935553360  -2.74832597400370  4.59330528689841
H  1.32383302721565  -2.15413389884203  4.57892771083285
C  0.48346359434944  0.25652506889869  -3.05009347725741
C  -0.00459078085656  -1.12625023576612  -2.83578334670360
C  -0.02284537556346  -1.59116584678430  -1.56718304781149
C  0.44172744202746  -0.89165309909587  -0.44710225840801
C  0.66683800944261  0.45623407144044  -0.73035866008943
C  0.88898055854888  1.07964363235345  -1.95638913732174
H  -0.52562379745198  -1.42817132822383  -3.73670249882546
H  -0.13523662148108  -2.69673652660440  -1.65955490097348
C  -1.60810199966165  -3.51981904879103  2.37908400843953
C  0.49315711317723  -3.66286383159131  3.56322135929688
C  -2.67322817876582  -4.37808496686727  2.19302538526501
C  -0.70819249061511  -4.19673825536529  3.39294060071467
H  1.29416531301708  -4.36993423372051  3.81046361722664
C  -2.61230270702663  -5.37569523050336  3.21288785047276
C  -1.51722630937425  -5.19971135960369  3.95555839174741
H  -3.24667501589123  -6.26631646281056  3.31106609478751
Cl  0.91871304148685  0.93133743736897  -4.56357353563880
Cl  -1.49219603844633  -5.75905254247823  5.47461239499039
N  0.91057228068795  -1.69064270567431  0.59903441954388
C  0.44155445436216  -2.59961823565031  1.29579800414462
O  1.11089702417612  -3.37342522857139  2.16958045355215
N  -0.88763159118754  -2.85401830039710  1.36566432186489
H  -1.35709527767894  -2.03638335644038  0.99947955875830
H  -3.45862169350344  -4.41346226278246  1.46786466567546
H  0.68373997695922  1.00382382701550  0.20040966451805
Cl  1.70859802480333  2.55588453864535  -1.94189322709194

