%nproc=8
%mem=4000MB
#opt=(noeigen,calcfc,ts,recalc=5,maxcyc=200) freq B3LYP/SVP em=GD3BJ

ts-2494.gjf

0 2
O  -2.38719407728668  -1.27105803935156  6.83964756066361
C  -3.07311358334144  -0.06276536095633  4.61013691322090
C  -2.56737490221064  1.10278834380118  3.93471924789440
C  -2.14398677729441  -0.55237144035327  5.79438391590458
C  -1.22662814138650  1.57398456185900  4.02536860217589
H  -3.15290780704283  1.52274719747093  3.13700870274512
C  -0.65280103648365  0.05534506684266  5.75469069491627
C  -0.25469673188305  0.98630871210008  4.80671324587696
H  -0.85414802364812  2.32035210169332  3.35453990329896
H  -0.11462162328751  -0.33684729009668  6.61873552056277
Cl  1.43081727939624  1.16629571076714  4.23395528599435
N  -4.14475261859360  -0.76475572675942  4.54605235329487
H  -5.00945357072265  -0.54740377556473  4.02958358956963
H  -1.66161182338378  -1.36759125720803  5.15233682964696

