%nproc=8
%mem=4000MB
#opt=(noeigen,calcfc,ts,recalc=5,maxcyc=200) freq B3LYP/SVP em=GD3BJ

ts-2524.gjf

0 2
O  -2.79533149532981  0.56587098699068  6.66829160140087
C  -3.73081354956687  1.30242444820487  4.74121051533477
C  -2.58866411264885  1.93479053755028  4.08863439676532
C  -3.36140533125696  0.03030101829965  5.59320374500811
C  -1.40529471885696  1.24762511315888  4.14950131947657
H  -2.60485349388604  2.95838592287243  3.74457376299308
C  -2.01879303533129  -0.57905972563140  5.56835512361119
C  -1.07169815064033  0.06891256899323  4.78832503109112
H  -0.53113619995569  1.73241152060136  3.76577827566998
H  -1.58949819137229  -1.43641493439592  6.08992413623705
Cl  0.38230270074177  -0.71315709387816  4.88150970087900
N  -4.85434514633436  1.82289372719800  5.01939170366891
H  -5.15028972698759  2.74154484036416  4.59231037393755
H  -4.29620128871638  -0.51464176560955  5.60580626454757

