%nproc=8
%mem=4000MB
#opt=(noeigen,calcfc,ts,recalc=5,maxcyc=200) freq B3LYP/SVP em=GD3BJ

ts-3834.gjf

0 2
O  1.62280180797244  0.16166387311687  8.54759819019587
H  0.67071751986816  0.04020215895536  8.41252738195741
C  -1.01357713805354  1.09875793381205  4.11874418989523
C  -0.72267897567472  2.34203034675106  3.55127282549550
C  -2.26515520100336  0.44027135118939  3.86085468039058
C  -1.59381496774202  2.85507893618871  2.58793145654395
H  0.04355825910061  2.93060526387689  3.99273940621476
C  -3.24534376809279  1.04210152680416  3.10399300895369
C  -2.83538964353139  2.22153013245550  2.38007997502354
H  -1.36624885517439  3.74166287834973  2.00479626226802
H  -4.25020753624666  0.65843451936335  2.92808873171597
Cl  -3.67802116608353  2.68831608478355  0.97437310769735
C  1.19826369055865  -0.08130594163855  4.90892580770744
O  2.12423779339111  -0.62653775161630  5.33710757980389
N  0.08748337367741  0.42492070654687  4.74734912212642
H  -2.46479536851626  -0.57662991471379  4.18710122317243

