%nproc=8
%mem=4000MB
#opt=(noeigen,calcfc,ts,recalc=5,maxcyc=200) freq B3LYP/SVP em=GD3BJ

ts-3854.gjf

0 2
O  2.43063261561415  0.48698063914108  7.12614862586246
H  2.80195387549814  0.34322656155846  7.98221328571279
C  -0.14457107961967  0.66364882412928  3.86087491718976
C  -0.22582472489310  1.86432835308684  3.16690227970188
C  -1.31572364927700  0.01645753926223  4.15428460126854
C  -1.32284530613008  2.30223509323629  2.50479402720908
H  0.71416261811201  2.32556861464245  2.87199331764115
C  -2.50566339146947  0.54533051727411  3.66994642798131
C  -2.51949563869566  1.51359551110246  2.72004713518862
H  -1.28227191526487  3.18883741812558  1.90097754671600
H  -3.41746114648123  0.12464973194087  4.02862666760047
Cl  -4.03632730955606  1.81757790703352  1.97261392809735
C  2.07071595966646  -0.33469374329817  4.48369335218569
O  3.06415070147790  -0.84484453332869  4.71189831004421
N  1.10355784547339  0.23387954187796  4.17450108123222
H  -1.28631842591694  -0.82808907622785  4.80751086693737

