%nproc=8
%mem=4000MB
#opt=(noeigen,calcfc,ts,recalc=5,maxcyc=200) freq B3LYP/SVP em=GD3BJ

ts-3864.gjf

0 2
O  2.70363760060489  0.80299443864431  5.88663832676822
H  3.49083776826870  1.31357206491436  5.61027858973955
C  0.27142994246223  0.55954814196903  3.76025304230022
C  0.02137565659880  1.45492062366510  2.61229574997723
C  -0.75828365346723  -0.10892156019243  4.41718330924464
C  -1.27041775197593  1.68017220244127  2.35097706505921
H  0.78985868657015  1.71741977730480  1.91989617143534
C  -2.06425699194995  0.20318653311312  4.01635119490168
C  -2.39010217184227  1.11180250834066  3.04773903760066
H  -1.48364274997340  2.18600479646402  1.41155166229369
H  -2.83471138164249  -0.26237747950388  4.63267512115969
Cl  -4.05753869414893  1.64947217509787  2.60836242043114
C  2.58473783478723  -0.07086060593361  4.41224175701064
O  3.40223674494087  -0.92385206546562  4.12870690872839
N  1.41664331796608  0.16601154563942  4.05282960881873
H  -0.48875412402742  -0.91881843684766  5.07516636278930

