%nproc=8
%mem=4000MB
#opt=(noeigen,calcfc,ts,recalc=5,maxcyc=200) freq B3LYP/SVP em=GD3BJ

ts-3874.gjf

0 2
O  3.30521431179859  1.08970736462375  4.61778564537040
H  3.75751298718911  1.14752625409908  5.46055964437186
C  0.47497488241163  0.25022246591847  3.60979237930664
C  -0.13379398158620  1.00439450879280  2.43588472445561
C  -0.48182267985345  -0.22178363807509  4.54323990675192
C  -1.45058233964198  1.20439496520191  2.18763925111085
H  0.60530497887898  1.52929917220205  1.81270335234616
C  -1.88602010699631  0.01789405357682  4.38920727067886
C  -2.28416667051609  0.64820312095750  3.20263597515214
H  -1.88626210057762  1.61372005065346  1.28678966691049
H  -2.60034674992381  -0.41314750516955  5.07852761345937
Cl  -3.89003319884385  1.46040037135080  3.31292292342964
C  2.92561859704311  0.26517004777017  3.82850507880878
O  3.77465899630597  -0.62267008322603  3.55611887804204
N  1.71386301112341  -0.02112441789471  3.51510159801065
H  -0.09503185955914  -0.68882476402711  5.44963377829453

