70
 energy: -143.141587882443 gnorm: 0.103392721485 xtb: 6.6.1 (8d0f1dd)
O    -1.10197574     1.00514462     0.17322767
H    -1.22747507     0.98087510    -0.77703489
H    -1.90761132     1.34884667     0.56330318
O    -3.49977992    -0.43204698    -2.83793328
H    -4.01227170    -1.06294644    -3.34651647
H    -2.69404230    -0.31042929    -3.34323922
O     0.78628180     0.24088336     1.89343788
H     1.31895467    -0.50012611     1.59932362
H     0.33652137     0.51563945     1.09246160
O    -3.77606991     0.26334434    -0.28497699
H    -4.60441325     0.74597548    -0.26905642
H    -3.70874702     0.05043485    -1.21743377
O    -1.23932104    -1.08435724    -4.27711925
H    -0.86747195    -0.75558220    -3.45676907
H    -1.09855179    -0.46021138    -4.99123694
O     1.14675920    -3.45246137    -2.73343450
H     1.47506712    -4.32824395    -2.94451920
H     0.20076107    -3.57849365    -2.64100693
O    -1.29446127    -4.13202928    -1.25794112
H    -1.72002401    -3.28668733    -1.10421808
H    -0.83688003    -4.36677117    -0.44871047
O    -2.18969682    -2.21550891     0.58262559
H    -1.67764688    -1.50496568     0.97284521
H    -2.95364843    -1.74867191     0.23943808
O    -0.02622451    -0.47921445    -1.91442128
H     0.77426980    -0.55870175    -2.43617719
H     0.08158814    -0.52153772    -0.96262141
O    -3.52963843    -3.48054212    -3.34371277
H    -3.24508456    -4.37735024    -3.52838172
H    -2.71115632    -3.03071171    -3.56068726
O    -1.55182433     2.06877760    -2.08070758
Cl    -1.31144516     2.27377920    -3.75443230
H    -1.01152507     2.68059681    -1.56656715
O     2.10826491     3.17689025     4.46980432
Cl     3.22629061     2.98876947     5.74094309
H     1.43646384     2.50549893     4.63863596
O     1.74456913    -2.34723002     0.17179182
Cl     1.45009232    -3.59322731     1.29515195
H     1.44135546    -2.59580689    -0.70960317
O    -0.18641128     1.66165873     3.93287140
Cl    -1.30952355     1.19948549     5.12709732
H     0.13441348     1.05940039     3.25100305
C     4.81086748     0.04647315     0.27637488
C     4.93173634     0.69195403     1.50090238
C     4.12283549     1.75945979     1.84119600
C     3.01902443     2.07887235     1.04340681
C     2.85289077     1.41138375    -0.16975189
C     3.75332381     0.42178767    -0.54700693
H     5.78469740     0.46598899     2.12718676
H     4.28830416     2.14493814     2.84120702
C    -1.34273485     4.01684142     1.26664680
C    -1.73955779     4.38002600    -0.02273522
C    -2.28867610     3.52608070     2.17119432
C    -3.06008815     4.20902599    -0.41849791
H    -0.95586594     4.72943415    -0.67550397
C    -3.59196250     3.30218517     1.75842602
C    -3.95942091     3.62678129     0.46085360
H    -3.42774843     4.56222425    -1.37317697
H    -4.35910453     2.94847472     2.43457176
Cl     5.82225672    -1.30257638    -0.12657128
Cl    -5.55067953     3.28571076    -0.16698938
N     2.06354202     2.95931140     1.57389281
H     2.12869983     3.13116199     2.56484011
C     0.94895065     3.34961921     0.84852388
O     0.83891762     3.23900811    -0.34934599
N     0.00551921     3.94283469     1.66478727
H     0.10483295     3.90600472     2.66709879
H    -1.96461048     3.21842885     3.16000970
H     2.01004500     1.68566014    -0.78322431
Cl     3.65740970    -0.30124510    -2.11970312
