70
 energy: -143.035159978612 gnorm: 0.087146004764 xtb: 6.6.1 (8d0f1dd)
O    -1.83518880     2.51796801    -3.99751365
H    -2.35006646     1.71221480    -3.92679739
H    -2.51170432     3.10296748    -4.34311612
O     3.49836262    -0.46137530    -4.45124557
H     3.20838353     0.45035580    -4.38802119
H     4.45026020    -0.45359236    -4.56599964
O    -0.76649042     2.51714541     3.97187352
H    -0.29830360     3.33738715     3.80651568
H    -1.71817675     2.62940055     3.93977559
O    -0.68517652    -3.84940806     5.10625942
H    -0.69322072    -3.30608306     5.89624183
H    -1.48440925    -4.37805034     5.07305035
O    -1.72011796    -5.46693700     0.09109394
H    -1.12464380    -5.37416094     0.83684344
H    -1.25422779    -5.74404336    -0.69978944
O     0.88021802    -1.70029083    -3.64748666
H     1.37146907    -2.04065226    -4.39726295
H     0.87485631    -2.30590262    -2.90415291
O    -3.33434154     0.00331408    -3.67487772
H    -3.38767186    -0.35482984    -2.78705665
H    -2.97860668    -0.68512754    -4.23953641
O     2.74967710    -4.04796651     0.70716908
H     2.54761806    -4.37935890    -0.16958026
H     2.04705801    -3.43969689     0.94311608
O     1.44514125     2.07344694    -4.11736190
H     1.86539977     2.62965657    -3.45906697
H     0.58417332     1.82192606    -3.77852669
O     3.77959410    -1.73749277    -0.96469943
H     3.46426512    -1.78959414    -1.86868584
H     4.43024576    -2.43644398    -0.87834023
O    -5.19692615    -0.05754163    -0.78471105
Cl    -5.35749198    -1.75229475    -0.72820709
H    -5.24624423     0.37799830    -1.64404749
O    -1.75938045     4.95215678     2.11568855
Cl    -0.12114513     4.54456660     1.88937030
H    -1.84072464     5.51637396     2.89391037
O    -3.92571221    -2.56345967     2.64898757
Cl    -5.46476819    -1.87970460     2.90383947
H    -3.37992587    -1.98150362     2.10674173
O     4.63151924     4.63749351    -0.29111644
Cl     4.72679355     4.49021815     1.40310716
H     3.67551867     4.72666319    -0.38438880
C     5.49933262    -0.32245142     1.03290355
C     4.80703307    -0.85314129     2.11448205
C     3.49036342    -0.49150219     2.32728964
C     2.82404147     0.38233855     1.46166373
C     3.51279208     0.91864873     0.37405652
C     4.84931411     0.58023427     0.19633216
H     5.29494823    -1.62178605     2.69925459
H     2.91660989    -0.89123089     3.15615594
C    -1.81068555     1.95087388     1.05106056
C    -1.86448410     2.50276319    -0.23128157
C    -2.87622031     2.09990644     1.94340695
C    -2.97595137     3.24961425    -0.60077246
H    -1.10400653     2.31411357    -0.97185647
C    -3.98418116     2.83772217     1.55985382
C    -4.04294376     3.36148208     0.27676965
H    -2.94669083     3.62973926    -1.61368113
H    -4.70927503     2.86202128     2.36262369
Cl     7.12488485    -0.84627390     0.73558486
Cl    -5.40703243     4.34216403    -0.19242633
N     1.50219341     0.73328878     1.77644389
H     1.11166564     0.50321260     2.67661484
C     0.54381485     1.12411570     0.85471778
O     0.69577676     1.23776806    -0.33827216
N    -0.66773036     1.26464392     1.50330347
H    -0.69649068     1.33011452     2.50865639
H    -2.90067469     1.67007117     2.93943287
H     2.95628180     1.49970911    -0.34332069
Cl     5.78962159     1.29443757    -1.07295294
