%nproc=8
%mem=4000MB
#opt=(noeigen,calcfc,ts,recalc=5,maxcyc=200) freq B3LYP/SVP em=GD3BJ

ts-5222.gjf

0 1
Cl  1.70023356181408  3.68867983118591  -3.67683407790174
C  0.53908736040627  0.74931300325669  -3.92067849663822
C  -0.39873211607554  0.91858824888176  -2.82051688870418
C  0.31304885409732  -0.14120112769321  -5.03138084742134
C  -1.60192765708367  0.40896571151771  -3.10113938831404
H  -0.28625398069151  1.86776926899971  -2.31156182739267
C  -0.70634547111341  -1.06697673503472  -4.89770775870218
C  -1.65459230785055  -0.74030380138438  -3.93858886784267
H  -2.54274948389632  0.63930911745987  -2.60763336400109
H  -0.92961265404460  -1.86570200200724  -5.61965368143399
Cl  -3.14786833083881  -1.56980450292566  -3.62325491409797
N  1.41250881768070  1.68447873812734  -4.32101542427614
H  1.51918873023137  1.86637933475007  -5.32727184065635
H  0.93283792494071  -0.03024924078364  -5.92760603817906

