%nproc=8
%mem=4000MB
#opt=(noeigen,calcfc,ts,recalc=5,maxcyc=200) freq B3LYP/SVP em=GD3BJ

ts-5232.gjf

0 1
Cl  1.87920545413160  3.20037520369621  -3.76363512047235
C  0.31599725525195  0.97481358915065  -3.93288034554032
C  -0.85153113182860  1.70283582800031  -3.65647068485284
C  0.34727673795852  -0.41135434179033  -3.51845475719182
C  -2.02783259066460  1.04483362847706  -3.23439662205368
H  -0.49849167200704  2.73096584970147  -3.59629549822626
C  -0.80310020944676  -1.12796887446072  -3.40404183055227
C  -2.01021148456463  -0.36082775118207  -3.47300569601923
H  -2.97701450571250  1.48324743336130  -2.89763187997383
H  -0.74015542743083  -2.19721598775737  -3.26132365473065
Cl  -3.38438147530839  -1.53659063901019  -3.81192460220518
N  1.56235660036760  1.49670936974741  -4.11476900273602
H  2.00749738586236  1.05164432336138  -3.27057395909634
H  1.25289445925085  -0.93347401818438  -3.25185839170158

