70
 energy: -143.113927903940 gnorm: 0.102509914358 xtb: 6.6.1 (8d0f1dd)
O    -0.85624782    -3.28112767     0.78842674
H    -1.10708109    -3.31451730    -0.13640072
H    -1.07135672    -4.04913829     1.32061705
O    -0.08976526     1.60039646    -4.20239621
H     0.48135383     1.08890011    -4.77818547
H     0.32732890     1.73939164    -3.35031003
O    -1.92078811     1.88461356     5.20542903
H    -1.71037064     0.97859869     4.97261978
H    -2.87904211     1.89593610     5.17445437
O     0.84282451     0.45031988     3.32204150
H     1.23531241     0.57579515     2.45627700
H     0.22283404     1.16889799     3.45840782
O    -1.60863448     0.01719595    -2.58864048
H    -1.62083544     0.73433995    -3.22495394
H    -0.90375861    -0.52381534    -2.94891106
O     1.15390556    -3.72745088    -2.25893555
H     1.10605748    -4.35218493    -1.53315604
H     1.07761702    -4.18933786    -3.09570310
O    -2.18303454    -3.09236875    -1.42617819
H    -3.04945728    -2.90762232    -1.05941146
H    -1.97150579    -2.31228195    -1.94198704
O    -3.97443436    -0.65548177    -1.54419803
H    -4.69994720    -0.37696210    -0.98259667
H    -3.68437281     0.08244691    -2.08332888
O     1.53488278     2.59957178    -2.13280209
H     2.40125772     3.00976672    -2.11104971
H     1.02916540     2.90310095    -1.37685382
O     1.34345388    -0.89535393    -3.37403525
H     1.49495839    -1.68817861    -2.85652802
H     2.20136094    -0.48051505    -3.48006582
O    -2.44493312     3.21516163    -3.68647610
Cl    -2.51754195     2.74333885    -2.05146129
H    -1.58006799     2.91429294    -3.98991101
O     2.95192761     4.10538618    -0.08440084
Cl     4.10311628     5.20618552     0.51906426
H     2.34335469     3.74381433     0.57095547
O    -0.20210235    -1.86213872     4.06682151
Cl    -1.75684113    -1.28505771     4.45531689
H     0.25949786    -1.12247541     3.65401459
O     0.96704050     3.90504736     4.28596722
Cl     1.89716810     3.76810780     2.86566055
H     0.08086954     4.04279226     3.93055837
C     4.91207406    -0.62690893    -0.35081757
C     4.32564895    -1.83459567     0.00740137
C     2.95965488    -1.95615425     0.17761485
C     2.16366825    -0.83549718    -0.08204619
C     2.68951273     0.30507996    -0.68823662
C     4.07046462     0.37122539    -0.83314386
H     4.97444208    -2.65622881     0.28093625
H     2.56123103    -2.93902013     0.40395215
C    -2.53230445     0.24572293     1.10233650
C    -2.58359156     1.63974675     1.17943828
C    -3.63066356    -0.56162152     1.41162495
C    -3.78731652     2.20146705     1.58586919
H    -1.80048803     2.36138370     1.01104883
C    -4.83214138     0.04008027     1.74847555
C    -4.92109164     1.42425642     1.76353457
H    -3.91236751     3.27643514     1.59774641
H    -5.64751116    -0.61126918     2.03432008
Cl     6.63853690    -0.47225657    -0.32597523
Cl    -6.44464396     2.24988854     1.96288311
N     0.77693376    -0.95437750     0.09787016
H     0.52860047    -1.92911472     0.16089920
C    -0.11302167     0.08688227     0.30899003
O     0.15198089     1.24519738     0.09147207
N    -1.33192597    -0.39636354     0.74373044
H    -1.31660715    -1.38162979     0.95554122
H    -3.48211533    -1.63389297     1.48640073
H     2.11599460     1.15716843    -1.01532552
Cl     4.77484060     1.73109051    -1.64552957
