%nproc=8
%mem=4000MB
#opt=(noeigen,calcfc,ts,recalc=5,maxcyc=200) freq B3LYP/SVP em=GD3BJ

ts-4548.gjf

0 1
Cl  2.92116711778780  0.00417550865921  -5.32263666192640
O  2.98105476252018  5.43958772612160  -4.32879896053167
C  -1.16418991970404  1.89747302743446  -3.16113450071168
C  -0.08232618904600  2.76829069441728  -3.16612287058975
C  0.79012234822057  2.47468714358672  -4.21848202449276
C  1.92042563809240  3.31825932096548  -4.40741193123720
C  0.26776641569441  1.24272245473951  -4.85709953889191
C  -0.88147095991461  0.96413718560218  -4.20484869650134
H  0.11543972447274  3.47536018155962  -2.37966424342014
Cl  -2.49919009741786  2.16329904038139  -2.20402252415787
N  2.31299794575297  4.44067523080560  -4.24074921006915
H  0.63601457389046  0.71376945285905  -5.71963443845191
Cl  -2.10022417852341  -0.17066099490253  -4.64601686692675

