%nproc=8
%mem=4000MB
#opt=(noeigen,calcfc,ts,recalc=5,maxcyc=200) freq B3LYP/SVP em=GD3BJ

ts-4578.gjf

0 1
Cl  3.02069847361550  1.53263585882842  -5.24306550769676
O  4.08940884156404  3.38847687342260  -3.90605373107904
C  -1.14742652764091  2.03236182097588  -2.66519618984713
C  0.11804050239824  2.54400209059319  -2.61967793730985
C  0.72828680870882  2.24517469013823  -3.90813014431476
C  2.06133592231074  2.59242648064753  -4.19335676072215
C  -0.35360433122316  1.83359101846369  -4.75223410451557
C  -1.43420535038490  1.55134169288372  -3.96113568673916
H  0.63720873427910  3.05504938266532  -1.84201173729747
Cl  -2.27050723138141  2.25054556812075  -1.34759995634218
N  2.88394276591454  3.42120372116560  -3.67653115494145
H  -0.35131289399131  1.51949058854887  -5.77992048178543
Cl  -2.83736467851196  0.69232248747264  -4.55896682317977

