%nproc=8
%mem=4000MB
#opt=(noeigen,calcfc,ts,recalc=5,maxcyc=200) freq B3LYP/SVP em=GD3BJ

ts-4598.gjf

0 1
Cl  2.55777622236120  1.62107200947275  -5.73033639211375
O  3.62542919934564  3.54622269876948  -2.43688682252901
C  -0.98009171964936  2.22146101473317  -2.20209675051202
C  0.40457112302536  2.26154092372271  -2.09175892091600
C  0.97010538778136  1.94526701447315  -3.40735739447604
C  2.31159340262210  2.18217328611491  -3.87201840043893
C  -0.09225620118756  1.49184965722891  -4.26851689224958
C  -1.22953520432578  1.86722009377869  -3.51643731033857
H  1.03403995978307  2.45474065577670  -1.24020920431816
Cl  -2.15785054841183  2.31276951532264  -0.92900821307719
N  3.18306931642513  2.82070203880573  -3.28118920806862
H  -0.01018815197156  1.22915035852596  -5.31186397882259
Cl  -2.76121273620127  1.86028345141553  -4.23238265920935

