70
 energy: -143.124419016736 gnorm: 0.089806669345 xtb: 6.6.1 (8d0f1dd)
O    -0.04819874    -3.69322114     0.99646795
H    -0.97201417    -3.88432289     1.16788323
H     0.31922541    -3.87910231     1.86237001
O     0.08671986     1.82815168    -4.03120681
H     0.68387072     1.15589769    -3.69830410
H     0.66437875     2.59325155    -4.01476116
O    -1.37095782     2.04225465     4.52827002
H    -1.69581615     2.93863103     4.42670695
H    -1.98235967     1.41211177     4.14298299
O     1.19853496    -0.52825684     3.18458147
H     1.51903314    -0.05144990     3.95222399
H     1.86561637    -0.43546331     2.50213717
O    -1.86416860    -0.85750729    -2.76920176
H    -1.27530123    -1.29984801    -2.15527254
H    -1.46851397    -0.05895385    -3.12290776
O    -0.14031104    -2.72489243    -1.88262131
H    -0.37271517    -3.50913960    -2.38290391
H     0.11165950    -3.08453228    -1.03026605
O    -2.61789131    -3.46808746    -0.07839825
H    -2.50105183    -3.05405408    -0.93528933
H    -3.55656287    -3.65476064    -0.02019680
O    -4.14432575    -1.58376797    -1.30320711
H    -3.93854224    -0.88752799    -0.67691547
H    -3.47870503    -1.47423913    -1.98459466
O     1.49225700     3.62170944    -2.27144871
H     1.86121547     4.16098002    -1.56973973
H     0.81913013     3.05906785    -1.88457345
O     1.18750063    -0.84182628    -3.45362709
H     0.80797312    -1.38465166    -2.76034663
H     1.09086350    -1.35241633    -4.25941699
O    -2.44781323     2.91591977    -3.55235735
Cl    -2.42482198     3.16716153    -1.86786597
H    -1.61318248     2.48682530    -3.77564160
O     3.39453225     4.51752438    -0.15396875
Cl     3.90182000     6.03062041     0.44131623
H     4.20837757     4.11004116    -0.47365661
O    -0.58433586    -2.53237676     3.96469132
Cl    -2.13097671    -1.86297370     3.71777949
H     0.04399140    -1.88161184     3.62958537
O     0.74923260     3.99740198     4.31121953
Cl     1.17539670     3.72960368     2.68400441
H     0.09558967     3.30372085     4.46003312
C     5.05612406    -0.78551563    -0.35644253
C     4.47763168    -1.92256590     0.19418049
C     3.10636739    -2.03027095     0.32730741
C     2.30072728    -0.90165146     0.14277311
C     2.87448282     0.26890686    -0.35269963
C     4.24693238     0.32742982    -0.56567554
H     5.06982964    -2.80706287     0.38860675
H     2.69334357    -2.98710536     0.62709852
C    -2.39205933     0.17882380     0.94262945
C    -2.29727963     1.57087628     1.01393322
C    -3.62811900    -0.39889005     1.24637344
C    -3.39720417     2.36755585     1.30571610
H    -1.36867583     2.04884791     0.74634372
C    -4.63555516     0.42666643     1.71816922
C    -4.60860757     1.81319261     1.68814340
H    -3.20611744     3.43247608     1.33339276
H    -5.55622706     0.06467207     2.15647779
Cl     6.77063668    -0.56914730    -0.49370037
Cl    -6.05464335     2.71689072     2.05547190
N     0.92577907    -1.07172924     0.36666128
H     0.71176946    -2.00745046     0.67387522
C    -0.10714490    -0.17813516     0.13134895
O     0.02894965     0.89383874    -0.40863676
N    -1.33293638    -0.66022567     0.54761500
H    -1.50467912    -1.62992152     0.76219003
H    -3.82151060    -1.44714829     1.44929809
H     2.28722385     1.16215896    -0.49123671
Cl     4.89320629     1.77964555    -1.25759223
