%nproc=8
%mem=4000MB
#opt=(noeigen,calcfc,ts,recalc=5,maxcyc=200) freq B3LYP/SVP em=GD3BJ

ts-5048.gjf

0 2
O  2.58133183537403  0.72036575853087  -1.01625377275690
H  2.17064898848500  0.34757287060125  -1.71383982135326
H  8.76278861895322  -0.38406009952000  3.94345336133804
O  9.00355043168526  0.50834733048205  3.51303881718159
H  8.16161523071015  0.54989777404032  3.05331112626619
O  -1.84699785506460  -2.12598685078468  -0.59001961919088
H  -2.70709331245499  -2.66564556862032  -0.43299810647237
Cl  -3.98694655751498  -0.86840770527799  -2.81794638837895
Cl  0.23087690658418  -0.86255245226190  -2.57190435638944
C  -2.42555382382831  -0.38108386975607  -2.36194572314608
C  -1.91828934329960  -0.79022603807868  -0.91227468323617
C  -0.45629655022272  -0.14768008958454  -1.11490037087070
C  -0.56450578394946  1.40480008954531  -1.22064052113980
C  -1.39124241777788  1.72423365202017  -2.34520095068014
C  -2.31039608133680  0.88168964124320  -2.92688231102973
H  -2.40284906555018  -0.24612440339328  -0.11832123862077
H  0.28156400694495  -0.35017021203979  -0.28433297456925
C  1.47839317610653  3.57080224834474  2.06388319515641
C  1.29058749175418  4.27581095036794  3.26397556582830
C  2.74101437948414  2.92187706422183  1.94892043789836
C  2.39076878886769  4.45422962587366  4.10241123868082
H  0.25314998934407  4.49545474916313  3.53710152959419
C  3.79794297699318  2.75489978726886  2.89552968080212
C  3.55368589832361  3.66678243821818  4.02439960930242
H  2.21079673031775  5.16312740044807  4.87204771628229
Cl  5.12336121650273  1.63468907763560  2.84297689410324
Cl  4.56333064033786  4.21576727356462  5.36808166766908
N  -0.09897397685796  2.03255675988170  -0.24654296665431
C  -0.18052013454925  3.53150723320745  0.17268444615807
O  -0.75806864282513  4.40100866729110  -0.48696398220365
N  0.36208797758878  3.69406843187360  1.31809174030687
H  1.78039483566054  0.56080730185067  -0.48890777776395
H  -1.41720517885027  2.72348936900592  -2.78176780668060
Cl  -3.19601702199819  1.75113359371254  -4.07560111973560

