%nproc=8
%mem=4000MB
#opt=(noeigen,calcfc,ts,recalc=5,maxcyc=200) freq B3LYP/SVP em=GD3BJ

ts-4990.gjf

0 1
O  0.26792798529273  4.19144329094738  -1.55796733851827
H  -0.10833896802190  4.68178269939800  -0.85382256607000
O  2.68018069257985  5.04828080548070  1.13300183863040
Cl  2.92664396496572  4.87506829410773  -0.44702534282313
H  3.18386553882013  4.35432467256633  1.63905877148789
Cl  0.75441699557445  2.81136490388082  -0.61978070857144

