%nproc=8
%mem=4000MB
#opt=(noeigen,calcfc,ts,recalc=5,maxcyc=200) freq B3LYP/SVP em=GD3BJ

ts-5000.gjf

0 1
O  0.29665344757637  3.82986209371490  -1.42428818148011
H  -0.33126384019907  4.42485558689045  -0.94012453909354
O  2.40829496207548  4.95461772386174  0.89808080498368
Cl  3.06878190241479  4.66871786283387  -0.54615221104303
H  2.64355485835734  4.33264502606143  1.58347159002417
Cl  0.46416887801509  2.44390400386215  -0.47438465000433

