%nproc=8
%mem=4000MB
#opt=(noeigen,calcfc,ts,recalc=5,maxcyc=200) freq B3LYP/SVP em=GD3BJ

ts-5010.gjf

0 1
O  0.17727901911268  3.43286776706403  -1.22388375037808
H  1.12108231426284  3.85084686307567  -1.42678169005734
O  2.15718266483012  4.65990059571385  0.65140273686182
Cl  3.24166594299654  4.46622682069617  -0.58658002066489
H  1.40370435275498  4.12934627876277  0.40539041172894
Cl  0.06943222848988  2.08318913924940  -0.36866416870555

