%nproc=8
%mem=4000MB
#opt=(noeigen,calcfc,ts,recalc=5,maxcyc=200) freq B3LYP/SVP em=GD3BJ

ts-5050.gjf

0 1
O  0.62550111213798  1.42591135353538  -3.65111816462112
H  0.91133849817013  1.88456558735115  -4.43482854423174
O  2.39255489354426  3.72187607389153  -1.84106065061268
Cl  3.16312702523800  4.03782008188267  -0.57423566898236
H  -0.14252442740829  1.51099912608755  -2.86737974400094
Cl  -1.62783084152779  0.99559142370721  0.30058222943354

