70
 energy: -143.138098971220 gnorm: 0.104509134211 xtb: 6.6.1 (8d0f1dd)
O    -0.56765883    -1.92806197     2.80031608
H     0.06072502    -2.38029389     2.23466773
H    -1.41099853    -2.08835332     2.37320541
O    -3.27447188    -2.21201132    -1.83814909
H    -3.29768930    -2.45324702    -0.91046106
H    -2.94557646    -1.31260931    -1.79080038
O    -0.75701065    -5.11237621    -2.73831692
H    -1.28824775    -5.55118774    -3.40507789
H    -0.54017295    -4.25676722    -3.11282062
O    -1.27945475    -0.09130186    -1.54396445
H    -0.52501557     0.44349356    -1.79725154
H    -0.86345771    -0.72296496    -0.95465413
O    -3.09446793     0.89451423     0.49032430
H    -3.72764924     1.56200969     0.22037905
H    -2.63159316     0.57655762    -0.28684277
O     1.77264052    -1.47587813    -2.22503182
H     1.14371475    -1.93182103    -2.78708737
H     2.48854500    -1.02100637    -2.67214692
O    -0.89090279    -3.21956803    -0.56374274
H    -1.02657315    -3.96662865    -1.14926081
H     0.03658428    -3.26397422    -0.32471466
O     0.32465216     0.50799544     4.83448789
H     0.93170581    -0.20800565     4.63912548
H    -0.57602770     0.25394650     4.62575016
O    -1.50432258     0.14386678    -4.34967577
H    -1.44129128     0.34061718    -3.41337724
H    -2.40412263    -0.03181150    -4.63045117
O    -0.29812653    -2.46801602    -3.29090736
H    -0.71107350    -1.74279146    -3.76299046
H    -0.75161521    -2.60784719    -2.45776057
O    -4.67515211     0.15639509    -1.87407190
Cl    -4.90035546     0.44359126    -3.53779184
H    -4.83214171    -0.77736503    -1.68959231
O     1.58642527     2.71900397     3.97434111
Cl     1.16241610     4.27564298     4.52046917
H     1.11676277     2.19830079     4.63681559
O     1.36253605    -1.44719358     0.47055144
Cl     2.34914455    -2.57363505     1.28227621
H     1.72304016    -1.33190745    -0.41676588
O    -1.43687320     1.60168583     3.04302506
Cl    -2.53895819     2.39694790     4.06973229
H    -2.01313181     1.22002949     2.37008188
C     5.69532839    -0.09397099     0.89474355
C     5.31832335     0.53378007     2.07564078
C     4.11445339     1.21225024     2.08365526
C     3.21470435     1.15808199     1.01388507
C     3.67006976     0.68653125    -0.21704046
C     4.91057396     0.05979354    -0.24443780
H     5.95036828     0.41457069     2.94578055
H     3.74173575     1.65792833     2.99932336
C    -0.98494723     3.59899646     0.64385508
C    -1.46277662     3.48024377    -0.66360592
C    -1.63669289     4.37859896     1.60370123
C    -2.67421108     4.09715815    -0.94911022
H    -1.03980299     2.83875736    -1.41988263
C    -2.78632105     5.06397474     1.24638145
C    -3.37858614     4.79120649     0.02208492
H    -3.19496127     3.89145308    -1.87530666
H    -3.31223364     5.70068916     1.94552502
Cl     7.17681365    -0.98980796     0.80594055
Cl    -4.97315391     5.24834473    -0.51735749
N     1.88296746     1.49912655     1.29619760
H     1.71224507     1.74540959     2.25846224
C     0.92057032     1.99187803     0.42913253
O     0.84553684     1.69795717    -0.74014706
N     0.10408535     2.85419503     1.13483433
H     0.29522496     2.93032146     2.12150471
H    -1.27143982     4.45112696     2.62289400
H     3.06267134     0.74880672    -1.10538377
Cl     5.46967049    -0.51231126    -1.78244182
