70
 energy: -143.145506933139 gnorm: 0.113647193258 xtb: 6.6.1 (8d0f1dd)
O    -0.21264191    -0.48885320     1.75879910
H    -0.14556354    -0.21972280     0.84097159
H     0.47626584    -1.15515546     1.73076167
O    -1.96127883     2.18169995     2.61051904
H    -1.86577620     2.85728484     3.28416814
H    -2.82695394     1.81731995     2.80331917
O    -2.41548741    -3.04010085    -0.09829156
H    -2.00679999    -3.34398902    -0.91067398
H    -1.66478698    -3.12985975     0.49139528
O     0.14428732    -0.97279001    -1.01197746
H    -0.72110785    -1.19945982    -1.35701508
H     0.49143259    -0.36520996    -1.66747353
O    -2.67824855    -1.02031266     2.34959078
H    -3.02444535    -1.40804433     1.54389164
H    -1.76367366    -0.82821999     2.13513498
O    -0.16738704    -2.28480366    -4.44941245
H     0.56983677    -1.68261339    -4.33449545
H    -0.99346731    -1.82818537    -4.61802616
O    -0.56062666    -3.74921948    -1.98396289
H    -0.38598712    -3.33840976    -2.83253454
H     0.29722550    -3.75923359    -1.55579472
O     0.79568028     1.05709864     4.01438982
H     1.11877305     0.78385067     4.87478786
H     0.06204334     0.49351286     3.76242865
O     0.87527586     0.07509166    -3.55736856
H     1.50359815     0.74325429    -3.27788979
H     0.03312418     0.52852383    -3.62458189
O    -1.59177706     1.35929089    -3.84920376
H    -2.31401907     0.94125450    -3.37702753
H    -1.90849104     1.43496751    -4.75103722
O    -2.76355745    -0.60887463    -1.56616029
Cl    -3.53747235     0.48604165    -0.51574310
H    -2.85878193    -1.50897361    -1.23248298
O     0.91555706     3.73922525     3.15837558
Cl     0.37899166     4.69755913     4.46024286
H     0.87689807     2.87672442     3.58870674
O     2.81698312    -2.41714812     1.77239521
Cl     2.45765621    -3.41664699     0.44083597
H     2.72618549    -1.50203750     1.48099432
O    -4.37763699     0.79774073     3.44033960
Cl    -4.11593774     0.27890648     5.04142840
H    -3.94645891     0.08651067     2.95164200
C     5.30174185    -0.51685953     1.04506602
C     4.73671130    -0.15308117     2.26126019
C     3.56877525     0.58534345     2.24272946
C     2.93353852     0.87776078     1.03117787
C     3.52931690     0.53275971    -0.18163615
C     4.76045481    -0.11268978    -0.17184498
H     5.18349598    -0.51726566     3.17700469
H     3.14446599     0.94681384     3.17294249
C    -1.01291449     3.45006440    -0.49768424
C    -0.81864121     3.71428521    -1.85574268
C    -2.16899601     3.89192802     0.15199970
C    -1.89244981     4.37315062    -2.44097853
H     0.04167813     3.47870200    -2.46131449
C    -3.25152166     4.45534804    -0.50355994
C    -3.05684492     4.81129958    -1.83001461
H    -1.73829655     4.67493872    -3.46883840
H    -4.12498321     4.77667794     0.04834864
Cl     6.84418491    -1.30800389     1.05804613
Cl    -4.35749889     5.43608207    -2.81009930
N     1.77765719     1.67304834     0.99969738
H     1.37038889     1.84973802     1.90450014
C     1.13910534     2.19517593    -0.11405685
O     1.49468621     2.11609361    -1.26581313
N     0.01075317     2.88446522     0.28588703
H    -0.39495279     2.71816042     1.19340752
H    -2.18545097     3.76079891     1.22901337
H     3.10339716     0.77409037    -1.14200942
Cl     5.45064250    -0.57853413    -1.69236437
