70
 energy: -143.139514039603 gnorm: 0.111966402776 xtb: 6.6.1 (8d0f1dd)
O    -2.16609724    -1.61854651     2.42956088
H    -3.01243843    -1.44815345     2.84670692
H    -2.23793903    -2.12890270     1.62103506
O     0.35305171     1.54380991    -2.81344827
H     1.07335826     1.43938736    -3.43762228
H     0.19476346     2.46171553    -2.58600119
O    -4.41175834     0.07174735     3.29565315
H    -4.99356792     0.31386396     4.01829813
H    -3.71130085     0.72572720     3.32740237
O     1.73770016     1.78811525     3.66699702
H     1.44308948     1.95440277     2.76983930
H     2.38287275     2.48117172     3.81787287
O    -0.71301155    -1.21763455    -1.18132826
H     0.14858957    -1.61698516    -1.04903396
H    -0.87913501    -1.32391123    -2.11964930
O     1.52771315    -2.72009317    -1.96291819
H     1.55598113    -2.49093063    -2.89352199
H     2.03398984    -3.52365143    -1.83132220
O    -2.22120733    -2.90824935     0.16072224
H    -1.82620221    -2.19941062    -0.35001845
H    -2.70760997    -3.44307342    -0.46913034
O     0.31958433    -1.35554820    -4.57922157
H    -0.34306110    -1.58212841    -3.92431653
H     0.28353319    -0.39769124    -4.60260716
O     0.37854813     4.17884925    -1.79330752
H     0.46512721     3.70496199    -0.96428791
H     1.25448859     4.41100329    -2.10662944
O    -2.28157787    -1.19606266    -3.62655426
H    -2.65739527    -0.33529127    -3.43375322
H    -2.79066552    -1.41314307    -4.40952562
O    -2.29896842     1.41965363    -3.28138419
Cl    -3.11727201     2.34110271    -2.10559804
H    -1.36017201     1.57365660    -3.12160065
O     3.19363247     3.54430814     0.84842274
Cl     2.04887586     4.57282923     1.57838256
H     2.71891360     2.87195097     0.34526776
O     0.43858473    -2.23049606     2.95954293
Cl     0.24319312    -1.83848291     4.60554160
H    -0.40070080    -2.01154772     2.53734919
O    -0.96563684     2.29256616     3.92717837
Cl    -1.27349343     3.69916589     4.83704778
H    -0.07670085     1.99955683     4.16068731
C     4.67780989    -1.96981856    -1.04859931
C     4.12044904    -2.59596788     0.05955608
C     3.16095180    -1.95707694     0.82170586
C     2.61937263    -0.73399746     0.41224351
C     3.20185812    -0.10317163    -0.68669456
C     4.21404699    -0.71124492    -1.42026254
H     4.51924259    -3.55174772     0.37305808
H     2.74900423    -2.43013738     1.70630098
C    -1.51416226     1.71744120     1.04270030
C    -1.28109527     3.07502029     1.27623031
C    -2.85003031     1.35568796     0.84661789
C    -2.29325416     4.02445492     1.33769422
H    -0.27703258     3.33531155     1.57029255
C    -3.86831671     2.29472120     0.86589715
C    -3.57571210     3.64643531     0.97235852
H    -1.96780599     5.01143430     1.63983726
H    -4.90295570     2.04246117     0.67438186
Cl     5.92404772    -2.77239048    -1.94747530
Cl    -4.89847583     4.77041898     0.80037961
N     1.50849760    -0.23032265     1.10636403
H     1.25403820    -0.77974878     1.91205383
C     0.73844375     0.84202523     0.68458056
O     1.09025954     1.82181739     0.07182671
N    -0.57431899     0.66997635     1.07867013
H    -0.98250964    -0.13293225     1.53096009
H    -3.05007988     0.29122702     0.78083687
H     2.95017387     0.85459424    -1.11249325
Cl     4.93732418     0.27787739    -2.64658076
