70
 energy: -143.129733463838 gnorm: 0.125645022403 xtb: 6.6.1 (8d0f1dd)
O     1.14315417    -3.72879614    -0.66243795
H     1.46089213    -4.45177783    -1.20620084
H     1.17267227    -4.06833149     0.23376689
O    -2.56091086     0.37136373    -1.27328724
H    -2.48117331     1.14709517    -0.71541498
H    -2.92774015    -0.38278084    -0.80848588
O    -0.83898677     0.84063755     3.57521513
H    -1.40678181     0.43256685     2.91914676
H    -0.20349609     0.16560020     3.81978522
O    -2.44133000     0.11739202     1.42399114
H    -3.29335201     0.55439622     1.37474896
H    -2.60491299    -0.70955694     0.96711645
O     2.05469680    -2.49302273    -3.48269806
H     1.55549009    -1.78962967    -3.06392596
H     1.90660671    -3.33277911    -3.04427286
O    -1.20254415    -2.29407634    -2.44672688
H    -0.44291277    -2.54579096    -2.97487260
H    -1.12213907    -1.34444996    -2.34144530
O    -0.15937939    -1.26560753     0.56234269
H     0.17849359    -0.44818037     0.19221819
H     0.17834643    -1.94320755    -0.02599232
O    -3.35081650    -1.91275439    -0.34620421
H    -2.63267039    -2.33281484    -0.82281050
H    -4.20540939    -1.84625351    -0.77583793
O     0.49967464    -0.12869594    -2.70352671
H     0.40709745     0.56980556    -2.05324699
H     0.06623313     0.22013552    -3.48441267
O    -4.96098572     0.98850809     0.45302416
H    -4.55843058     1.27324609    -0.36929692
H    -5.85624476     1.31814416     0.35716175
O    -4.54801436     0.24095395    -2.87465546
Cl    -4.43756492     1.26984943    -4.22755502
H    -3.65096561     0.30914850    -2.52646090
O     2.20957979     2.24300981     3.91521588
Cl     2.69409396     0.87203627     4.80225715
H     1.86347636     2.90250770     4.52829178
O     1.39013119    -1.16102301     2.52096725
Cl     1.46162638    -2.64306479     3.35739085
H     0.70441321    -1.32127948     1.86165334
O    -0.29589574     3.11666822     5.12449579
Cl    -1.76090824     3.96572174     4.94008507
H    -0.40925402     2.35258919     4.54663662
C     5.20787092    -0.58973029    -0.72994653
C     4.73154483    -0.92806810     0.53075305
C     3.79178567    -0.16936238     1.20224933
C     3.27768095     0.95420747     0.54636980
C     3.70392063     1.27599093    -0.74191224
C     4.55274709     0.41803012    -1.43169359
H     5.18006897    -1.80817498     0.97242359
H     3.41311436    -0.39228672     2.19366662
C    -1.07637836     3.06218584     0.85233131
C    -1.19600453     3.52630444    -0.45998000
C    -2.18316718     3.19762192     1.69526233
C    -2.36838977     4.04672054    -0.99322426
H    -0.35437650     3.76120710    -1.09152494
C    -3.39200996     3.68678728     1.22784531
C    -3.42367269     4.09915591    -0.09617587
H    -2.45798323     4.50993610    -1.96725688
H    -4.24201911     3.84591162     1.87819517
Cl     6.41864748    -1.55371092    -1.51095225
Cl    -4.94550464     4.65814791    -0.73974043
N     2.29887981     1.82150154     1.05556943
H     2.31088292     1.88759776     2.06117469
C     1.02870684     1.97631839     0.52311609
O     0.80400254     1.71086040    -0.63372199
N     0.10675923     2.52457029     1.39356763
H     0.09611832     2.28721613     2.37305618
H    -2.11363602     3.04086063     2.76671712
H     3.11810709     1.99153600    -1.29579191
Cl     5.11292015     0.67855126    -3.05147261
