70
 energy: -143.138540093000 gnorm: 0.121279045628 xtb: 6.6.1 (8d0f1dd)
O    -3.03754594    -0.50645077     1.64508621
H    -3.43682405     0.36408290     1.69076047
H    -3.50859012    -0.92753774     0.92387762
O    -5.67025762     0.68873260    -2.33687636
H    -4.90424604     0.42906446    -2.85179141
H    -5.66451874     1.64429092    -2.25805102
O    -0.36384877     0.62530745     2.32091990
H     0.23387165     0.00298032     1.90285549
H    -1.23742389     0.29328860     2.10651757
O    -4.35045705    -1.09673313    -0.49916814
H    -4.79472071    -0.44602995    -1.04556923
H    -4.81302792    -1.91284665    -0.30086190
O    -0.08486981    -1.30504851    -3.36852745
H    -0.46336878    -0.81696004    -2.63514667
H     0.52676162    -1.96966761    -3.04677203
O     0.93262472    -3.34246395    -1.08133019
H     0.34784545    -3.66484986    -1.76939887
H     1.70219600    -3.91198705    -1.13370332
O    -0.44426131    -4.17295988    -3.23779289
H    -1.22562668    -4.59452686    -2.87573368
H    -0.69271613    -3.63861694    -3.99415683
O    -3.33515572    -4.24340336    -2.84202941
H    -4.23761665    -4.22402718    -2.51872306
H    -3.07073709    -3.50559627    -3.39435178
O    -1.91713181    -0.08032044    -0.99481473
H    -1.30325794     0.60034141    -0.71339528
H    -1.84579988    -0.66344352    -0.23704362
O    -3.29152989    -0.61314534    -3.19798869
H    -2.97804877    -0.64868619    -2.29255798
H    -2.60469696    -0.36339858    -3.81865395
O    -0.79722809     2.03116407    -4.71529712
Cl    -0.42799649     3.44733378    -3.84392257
H    -0.39484700     1.28267631    -4.25874269
O     1.52562449     3.53532976     3.73526179
Cl     2.07679519     4.75266708     4.79141773
H     1.11229109     2.79944784     4.20240245
O     1.03506686    -1.55163076     1.00705755
Cl     1.90660114    -2.23549018     2.30086129
H     1.09662932    -2.14218524     0.24676708
O     0.26491017     1.50058941     4.68413135
Cl     1.51127325     0.39014776     5.02274505
H    -0.21606301     1.35820654     3.86012893
C     5.02501996    -0.52099091     0.42301269
C     4.77642422    -0.07676347     1.71591045
C     3.75971983     0.83816158     1.91317479
C     2.82696073     1.19632314     0.93410811
C     2.95755223     0.56923055    -0.30468008
C     4.12601084    -0.13647673    -0.56751679
H     5.43870506    -0.36180844     2.52273654
H     3.68376991     1.32698307     2.87820362
C    -1.36174881     3.71543193     1.02616260
C    -1.87056425     3.41644508    -0.24016719
C    -2.14029147     4.09719584     2.12251327
C    -3.25593874     3.42082322    -0.34208811
H    -1.27143474     3.07741822    -1.06990849
C    -3.52093812     4.02768208     2.03281964
C    -4.01692745     3.65244026     0.79295245
H    -3.68320477     3.29432907    -1.32838327
H    -4.17326953     4.32383168     2.84371433
Cl     6.27500914    -1.67881996     0.10337637
Cl    -5.75420351     3.71780210     0.65075684
N     1.88367587     2.17877559     1.27253948
H     2.02917157     2.71788591     2.11155425
C     0.69875471     2.44100990     0.60320460
O     0.31600110     1.80524228    -0.34996563
N    -0.01552510     3.40162803     1.29260329
H     0.36364596     3.58209678     2.20885018
H    -1.62487863     4.30661326     3.05413443
H     2.27344078     0.63519699    -1.13510460
Cl     4.43520718    -0.72587748    -2.16825213
