70
 energy: -143.068725686249 gnorm: 0.099732439163 xtb: 6.6.1 (8d0f1dd)
O    -2.11048714     0.88767717    -3.11172979
H    -2.60087555     0.29609348    -3.68521560
H    -2.45546388     0.82108482    -2.21960021
O     4.10658038     0.63698199    -5.78015639
H     3.82562954    -0.18930933    -5.38310719
H     4.52863142     1.11282067    -5.06266873
O     0.32339330     1.27867934     3.91335909
H     0.70264064     1.69885350     3.13943161
H    -0.38008355     1.86916720     4.18864580
O    -1.49246080    -2.61833096     3.17809210
H    -2.36044122    -2.68299573     2.77588888
H    -1.54800613    -3.34078733     3.80603315
O    -2.81109363    -4.62883265     0.82488032
H    -3.76643742    -4.57311522     0.88448741
H    -2.53986204    -4.87273988     1.71160508
O     0.43989684    -0.48985810    -2.07094091
H     0.61988622    -0.69980703    -2.98901675
H    -0.26008873     0.15637319    -1.96256759
O    -1.47909881    -2.51498546    -2.19354905
H    -0.59487558    -2.18038786    -2.03376433
H    -1.56188891    -3.30382553    -1.65483231
O     0.65379204    -2.89975168     0.12311396
H     1.04719085    -3.27222694    -0.66798511
H     0.63486552    -2.03977144    -0.30045691
O     2.23012985     2.51800753    -4.05939179
H     2.85979810     3.20357825    -4.28928151
H     1.54628527     2.95609452    -3.54971131
O     3.57781273    -1.68028364    -2.37443764
H     2.72504481    -1.26145516    -2.24517856
H     4.27259717    -1.01995509    -2.39850180
O    -3.71872547    -0.69231718    -1.45028233
Cl    -4.88991228    -0.67566078    -0.21367155
H    -3.21409076    -1.50775045    -1.55515758
O     0.20096496     4.21736667     2.47483846
Cl     0.21287873     5.31479332     1.17227274
H     0.99229910     4.39649519     2.99665294
O    -4.61032151    -3.00162336     2.99079632
Cl    -4.43242288    -1.32181685     3.20935058
H    -5.52241491    -3.21431908     2.75964204
O     3.44406591     3.72612137     0.68171969
Cl     3.53043502     3.03826371     2.23753235
H     2.53564686     4.04123856     0.75959174
C     5.42737739     0.09962835     1.05388669
C     4.83535048    -0.37348270     2.21852935
C     3.45878610    -0.43366043     2.32406621
C     2.65888653     0.09673621     1.30635754
C     3.26213937     0.50946055     0.11865384
C     4.64560717     0.52515791    -0.01614934
H     5.41827085    -0.77687022     3.03603608
H     3.01223524    -0.79328752     3.24453141
C    -1.87423176     1.82606479     0.89690309
C    -1.74846683     2.99421484     0.14093608
C    -3.13812304     1.44158626     1.35364401
C    -2.89618670     3.62639140    -0.32032462
H    -0.79611749     3.43711006    -0.10245779
C    -4.28306556     2.13209619     0.99120094
C    -4.14154378     3.17374228     0.08619954
H    -2.75629794     4.50267063    -0.93992211
H    -5.29371526     1.94499526     1.32938948
Cl     7.15710920     0.16348175     0.95818359
Cl    -5.60260865     3.85002580    -0.58503065
N     1.26796122     0.19481410     1.46523636
H     0.86583102    -0.51436132     2.05778699
C     0.53122672     1.20275949     0.86350340
O     1.00377579     2.09692681     0.20290028
N    -0.80524275     0.92858587     1.08014044
H    -0.93581205     0.13030486     1.68142834
H    -3.23143036     0.48526264     1.85778975
H     2.70021660     0.88118041    -0.72279259
Cl     5.34004070     0.98709049    -1.53592878
