%nproc=8
%mem=4000MB
#opt=(noeigen,calcfc,ts,recalc=5,maxcyc=200) freq B3LYP/SVP em=GD3BJ

ts-519.gjf

0 1
O  0.67581097628532  -5.60208523825925  -0.89852360003999
H  1.10194130391937  -5.34016022737302  -1.76884087498179
C  -1.82205201638283  4.13326509352873  1.85771288214952
C  -1.52756289910135  4.72721466296370  0.66936796742096
C  -1.06035748145886  3.99074386885712  -0.41214546749255
C  -0.85978944933985  2.62571061700404  -0.17283277780312
C  -0.88326385217947  2.06098009102003  1.07856983300212
C  -1.50317077216504  2.75453539067976  2.03641884713088
H  -1.88674052174336  5.73388275907688  0.46925211285092
H  -1.26602958237251  4.43325020467873  -1.39488960945574
C  -0.11108179933933  -1.75947320602761  -0.40387169858872
C  -0.05575749913029  -2.63205155687390  0.79928366439403
C  -0.38767462406563  -2.68146042718133  -1.50041858369774
C  -0.21644651404236  -3.98909204366949  0.93095845758455
H  0.11306226487150  -2.18489530560323  1.77703841840068
C  -0.55684051586636  -4.02348965668683  -1.51257238237895
C  -0.20698141591897  -4.87824268641588  -0.33068853646148
H  -0.01526336661171  -4.57496906937829  1.81068616288738
H  -0.67332824585736  -4.62255099097867  -2.39844069314540
Cl  -3.11738193128843  4.51350213715071  2.76940903133351
Cl  -2.03625528548646  -6.03614718822061  0.27975162877804
N  -0.33245300537773  1.79920484448861  -1.28167013750055
H  0.21013826877677  2.31394715339898  -1.93746711713038
C  -0.42179622004440  0.46563515410012  -1.48719139170083
O  -0.16449938465285  0.03959102097740  -2.62608868055395
N  -0.41738189639099  -0.41528189619021  -0.27610747827959
H  -0.47359548795099  -2.31714863451437  -2.48982798481306
H  -0.65429313806995  0.99319959244838  1.16044038436519
Cl  -1.70016582922726  2.23160034185015  3.61715997603615

