%nproc=8
%mem=4000MB
#opt=(noeigen,calcfc,ts,recalc=5,maxcyc=200) freq B3LYP/SVP em=GD3BJ

ts-2987.gjf

0 2
O  -3.65346426843699  -0.16691259848856  4.96908842873507
Cl  -0.44676091215082  -2.01903047234233  7.31930961848808
H  -2.87984917867876  -0.27983445172402  5.48533550768779
H  -4.17355558339436  -0.86172191401252  5.38310719102838

