%nproc=8
%mem=4000MB
#opt=(noeigen,calcfc,ts,recalc=5,maxcyc=200) freq B3LYP/SVP em=GD3BJ

ts-3047.gjf

0 2
O  -3.53143697853985  0.38733046030923  5.33397135135276
Cl  -0.78439648613412  -2.33588056999705  7.39492954249849
H  -2.98552147997093  0.22105495195951  6.07692075702665
H  -1.48379099108629  -2.16297329945540  8.53370084968649

