70
 energy: -143.096275316963 gnorm: 0.090456258424 xtb: 6.6.1 (8d0f1dd)
O     2.00831151    -3.23780318    -4.50360680
H     1.45333585    -3.31258200    -5.28190505
H     1.49173569    -2.61435413    -3.98999274
O    -0.61711092     0.46841582    -5.02313632
H    -0.99581236     1.09006337    -5.64721831
H     0.31385137     0.68613522    -4.95071013
O    -1.00253279     2.27157500     3.99177869
H    -0.34686421     1.57213933     4.00684785
H    -1.81102076     1.93897820     3.59799584
O     1.79445586    -0.56430066     4.05082733
H     2.49528755    -0.90845748     4.60736126
H     1.88863391     0.38482103     3.95265930
O    -4.89447161    -0.10420648    -1.69509988
H    -4.10668906     0.36286391    -1.97897152
H    -4.82998537    -0.19207271    -0.74249338
O    -1.44917873    -2.47288398    -4.54164413
H    -1.72389531    -1.57987647    -4.32622276
H    -1.02148516    -2.45401224    -5.39958442
O     1.09781981    -5.53494409    -2.60985162
H     0.79310570    -4.93249804    -1.92900985
H     2.00015530    -5.25043945    -2.76537122
O    -3.02977144    -1.57518071    -0.34659300
H    -3.72739746    -2.10221829    -0.74015048
H    -2.63207378    -1.02108733    -1.02050220
O     1.92896222     1.58162043    -4.09123127
H     2.75125910     2.05992781    -4.21118333
H     1.56691378     1.84811596    -3.24433171
O     0.72412429    -1.44989552    -2.41273034
H     0.74796117    -0.53217759    -2.13602845
H    -0.13947503    -1.86292466    -2.35849531
O    -1.74555116     0.74605554    -2.68538803
Cl    -2.27321931     2.21579774    -3.36552508
H    -1.16284422     0.39511647    -3.36940616
O    -0.03612515     4.37336995     2.73232724
Cl     0.36444134     3.44264900     1.36321451
H    -0.62523493     3.73411398     3.15052405
O    -1.19858165    -0.67568714     4.33239945
Cl    -2.22010719    -0.48155947     5.68145980
H    -0.36863399    -1.00866404     4.69419966
O     2.08446884     2.53599215     3.95162610
Cl     3.08555832     3.44128129     4.99058339
H     1.43481640     3.21935743     3.74778384
C     5.23315499    -0.23488507     0.25003829
C     4.69685059    -1.02759744     1.25736515
C     3.33512960    -1.16043501     1.45168224
C     2.43808483    -0.29638387     0.81480133
C     2.96737895     0.51004894    -0.19237765
C     4.32577438     0.52009960    -0.48744129
H     5.35256548    -1.68624772     1.81148858
H     2.97850297    -1.88322116     2.17721184
C    -2.28304765     1.22411260     0.89456599
C    -2.30647705     2.34864196     0.06585475
C    -3.41575726     0.91386487     1.65257158
C    -3.42861528     3.16193244    -0.02919237
H    -1.54584153     2.40593213    -0.69606223
C    -4.49733150     1.77945679     1.65575820
C    -4.46081979     2.91696927     0.86277978
H    -3.51877563     4.04647458    -0.64627544
H    -5.33875681     1.61616896     2.31616081
Cl     6.94271704    -0.39745067     0.01301777
Cl    -5.84713466     3.96956147     0.97591986
N     1.07344433    -0.28430195     1.14213211
H     0.74134457    -0.68293000     2.00616926
C     0.07574009     0.30372198     0.38079880
O     0.19213895     0.56348364    -0.79317290
N    -1.08255808     0.51876624     1.10215504
H    -1.08774797    -0.10431033     1.89436507
H    -3.55346667     0.06322184     2.31201576
H     2.28418638     1.12638854    -0.75392771
Cl     4.83441793     1.49341505    -1.82881679
