70
 energy: -143.126351734133 gnorm: 0.117757840560 xtb: 6.6.1 (8d0f1dd)
O    -0.14753638    -2.79139233     1.26237331
H    -1.03305095    -3.14663154     1.16746775
H    -0.03546643    -2.43020285     2.14346421
O    -1.32153649     2.46747252    -2.93442086
H    -0.83878488     1.66241466    -3.12979622
H    -1.63840452     2.39046281    -2.03275450
O    -0.36618538     0.37131104     5.38257664
H     0.11889687     1.19762795     5.34744554
H    -1.22400085     0.61009273     5.02694441
O     1.18751760     3.67250098     3.25446727
H     1.08744844     4.21339815     2.46912951
H     1.76815846     4.17319450     3.83022819
O    -2.78374570    -1.12970918    -0.93043032
H    -2.04774350    -0.90916339    -1.50401511
H    -3.54780277    -0.57503313    -1.09743147
O    -0.66473716    -0.37463762    -2.65928694
H     0.26668612    -0.15667209    -2.72470620
H    -0.79959573    -1.20585414    -3.11779728
O    -2.68231062    -4.07196696     0.59776898
H    -3.13827472    -3.28949660     0.28284944
H    -3.29334763    -4.71109976     0.96855411
O    -0.22631557    -2.88136270    -3.38583827
H     0.73102467    -2.90871056    -3.34012261
H    -0.52444276    -3.18795542    -4.24400935
O     1.38101205     2.09848631    -2.41466493
H     1.42394005     2.08580136    -1.45688893
H     0.68556271     2.65723217    -2.76607793
O     2.08674331     0.04145556    -3.95260757
H     2.34297120     0.44465853    -4.78393962
H     2.18706040     0.61347855    -3.18967607
O    -3.70392752     3.60561655    -3.70779826
Cl    -4.22696158     2.33607682    -2.69989626
H    -2.75986517     3.45275995    -3.83416102
O     1.35750174     4.81575367     0.40500761
Cl     2.98880512     4.44435112     0.72449799
H     1.16761042     4.51337854    -0.49114955
O     0.40960436    -1.22408734     3.53803528
Cl     2.07341372    -1.58812591     3.55748082
H     0.31583719    -0.52875538     4.20008311
O    -0.83403275     2.85882240     4.73681788
Cl    -2.25920608     2.38838793     3.93137811
H    -0.34772963     3.36416209     4.07445155
C     4.49225966    -2.32271987    -0.51439910
C     3.37464790    -3.07752434    -0.84896843
C     2.14329310    -2.46708149    -0.70469856
C     2.11108073    -1.12844738    -0.29983818
C     3.24310502    -0.33006103    -0.13860637
C     4.47628481    -0.96976373    -0.18809907
H     3.35883006    -4.13844548    -1.06117357
H     1.23475329    -3.05163534    -0.79876068
C    -1.93304935     1.60601398     0.73283004
C    -1.59891189     2.94725327     0.52958933
C    -3.22647336     1.28623851     1.15550622
C    -2.55175267     3.91734579     0.81363947
H    -0.58863621     3.25500337     0.31279692
C    -4.19488937     2.25997007     1.33738417
C    -3.87317587     3.58085949     1.06200425
H    -2.23886170     4.93910614     0.64205792
H    -5.18896081     2.02680011     1.69549700
Cl     6.02919011    -3.07406587    -0.79463557
Cl    -4.96717688     4.92339437     1.27028727
N     0.84482214    -0.59564182    -0.01305884
H     0.17501225    -1.34590165    -0.07801756
C     0.36589983     0.69210474     0.16903011
O     0.98009481     1.72704377     0.06462685
N    -0.96964976     0.60385451     0.51075018
H    -1.40707440    -0.29933505     0.60432548
H    -3.55205812     0.27379438     1.37085595
H     3.12644816     0.71101914     0.11537831
Cl     5.88785318     0.00550595     0.06024142
