70
 energy: -143.150233713234 gnorm: 0.105129713253 xtb: 6.6.1 (8d0f1dd)
O    -0.73852135    -0.07929968     1.65274637
H    -1.40194973     0.60616582     1.55611384
H    -0.65536334    -0.53546324     0.81349775
O    -2.84444126    -0.03716642    -0.27222356
H    -2.55816180    -0.91831680    -0.51911804
H    -3.45564907     0.20841081    -0.96896949
O     2.14000468    -2.36308620     3.31656636
H     2.00091842    -2.50231917     2.37815930
H     2.94002615    -2.83924849     3.54585544
O    -4.35183797     0.16293494     1.99880609
H    -4.51867721     1.00507674     1.57183907
H    -3.77650348    -0.25835342     1.35783433
O    -4.33061932     1.27784741    -2.18776371
H    -4.11649792     2.20724288    -2.08919756
H    -4.69097930     1.24012001    -3.07548857
O    -0.49064439    -2.29742523    -0.60107849
H    -0.40945061    -2.02667155    -1.51728698
H    -0.88739996    -3.16936594    -0.56053367
O    -1.83709198    -2.76734522     2.58590758
H    -1.97438734    -2.62728960     3.52445532
H    -1.19017976    -2.09078829     2.37826874
O     0.50898769    -0.18273167     3.98211983
H    -0.38397965    -0.37786499     3.69251578
H     1.04515891    -0.88057795     3.60150518
O     0.00995679    -1.21617390    -3.00238804
H     0.63467263    -1.69132423    -3.55311562
H     0.11995404    -0.30456423    -3.27844280
O    -3.03784106    -2.75991726     0.14414543
H    -3.97042603    -2.98260101     0.15010834
H    -2.75209015    -2.80059405     1.05849225
O     0.19410083     2.53498945    -3.92107841
Cl    -1.03710254     1.59740574    -3.20957488
H     0.80621338     2.74887366    -3.20682483
O     0.46981684     2.30306117     3.45248853
Cl     0.05735513     2.91862424     4.98615150
H     0.50569650     1.34265029     3.53561914
O     1.84318766    -2.72263619     0.27605350
Cl     2.83960956    -2.87456731    -1.09698115
H     0.94091509    -2.59818603    -0.04175538
O    -3.98560053     0.71223435     4.79043078
Cl    -2.46906461     0.08457352     5.24575650
H    -4.00844671     0.58598971     3.83433015
C     5.54517364    -0.03747890    -0.34632731
C     5.21055751     0.21469402     0.97849856
C     4.02452427     0.82972440     1.33170079
C     3.19500830     1.34307582     0.32907196
C     3.46960376     1.02554782    -1.00084118
C     4.60420895     0.28803273    -1.31887304
H     5.92290327    -0.05188189     1.74813211
H     3.68427951     0.98099726     2.35020243
C    -1.05262084     3.82815915     0.31959150
C    -1.23053330     4.24262127    -1.00269660
C    -2.16543056     3.74282024     1.16115492
C    -2.51762705     4.36259183    -1.51128906
H    -0.41152795     4.43202516    -1.67776878
C    -3.44785828     3.99806824     0.70367274
C    -3.59886066     4.18530033    -0.66242571
H    -2.72724332     4.48876742    -2.56555466
H    -4.34591203     4.02816566     1.30648671
Cl     7.10954526    -0.66199462    -0.75612025
Cl    -5.20967287     4.18751693    -1.33167830
N     2.14643191     2.16981528     0.76095685
H     2.07014209     2.14830354     1.76568163
C     1.20779452     2.92959521     0.08087701
O     1.30796141     3.08643361    -1.11269020
N     0.13680609     3.31005313     0.86604517
H     0.15662545     2.97724153     1.81719800
H    -1.96971104     3.54029674     2.20905863
H     2.71949909     1.39791105    -1.67955589
Cl     4.62554261    -0.32194199    -2.94147131
