70
 energy: -143.054212338595 gnorm: 0.099824154078 xtb: 6.6.1 (8d0f1dd)
O    -1.78996568     0.43892892    -2.85037250
H    -2.25469625     1.24004462    -2.60222506
H    -2.34673500    -0.12936214    -2.31521656
O     4.40428995     0.68173611    -5.89915710
H     3.61824447     0.86723708    -6.41593625
H     4.25549176    -0.19244243    -5.53445304
O     0.70392361     1.40179563     3.73750494
H     0.93650765     2.13938696     4.30425208
H     0.15267790     0.71567114     4.11789909
O    -0.75629636    -1.27431272     2.98589512
H    -0.94922694    -2.01118791     2.40354495
H    -1.57685574    -0.79371517     3.10856033
O    -3.44712694    -4.70790780     0.15956731
H    -2.81478548    -4.19632970     0.66727915
H    -3.66113594    -4.31765024    -0.68968959
O     0.70547987    -0.35076219    -2.32306578
H     0.01225216    -0.46325143    -2.97584406
H     1.49297172     0.10296335    -2.62856404
O    -1.74537176    -3.51525490    -1.53037943
H    -1.77911945    -3.42062891    -2.48392254
H    -1.68575860    -4.45549922    -1.35226300
O     0.05286997    -2.28405557     0.42489361
H     0.45289354    -2.19354925    -0.44178276
H    -0.66511626    -2.86479006     0.16686314
O     2.20500567     2.91729759    -3.58787227
H     1.58435570     2.86489803    -4.31683488
H     3.01562257     3.32245829    -3.90105410
O     3.08393016    -1.39430874    -2.85452175
H     3.88819682    -1.85769606    -2.61417686
H     2.38269119    -2.02319668    -2.67535102
O    -3.31367382    -1.31785930    -1.31582308
Cl    -4.65825782    -0.78369521    -0.41697670
H    -2.67585288    -1.60126921    -0.64990291
O     0.93562274     4.53575983     2.78068298
Cl     0.27886839     5.23406471     1.37277365
H     0.43824412     3.71384239     2.86816631
O    -4.95420682    -2.72703352     2.85961097
Cl    -4.18709866    -1.27474997     3.31081092
H    -5.00618683    -2.67593678     1.89769969
O     3.16601904     3.43293996     1.10565019
Cl     3.37846150     2.87802094     2.70192520
H     2.57112211     2.94001515     0.52797307
C     5.34369626     0.15514660     0.95066685
C     4.72260066    -0.31908658     2.09960794
C     3.34975144    -0.47221890     2.13865197
C     2.59528816    -0.04619523     1.04038979
C     3.19841826     0.34076118    -0.15601913
C     4.58562382     0.42581367    -0.18479901
H     5.31022566    -0.52120764     2.98542893
H     2.80934249    -0.83057593     3.00786649
C    -1.95776315     1.87680541     0.90851636
C    -1.87811498     2.69505319    -0.22108721
C    -3.14462488     1.79332848     1.64217024
C    -3.04226751     3.24180930    -0.74594544
H    -0.92411972     2.57982947    -0.70994564
C    -4.26226628     2.47271364     1.18568820
C    -4.22895406     3.12121943    -0.04004141
H    -3.08749862     3.78478302    -1.68107586
H    -5.18498347     2.41802428     1.74817653
Cl     7.05299946     0.43105243     1.03649826
Cl    -5.75761303     3.76226608    -0.58307075
N     1.20677467     0.04478563     1.22283910
H     0.73563954    -0.62480093     1.81058076
C     0.42801509     1.08807888     0.74756349
O     0.84371489     1.94686569     0.00667672
N    -0.84852328     1.09149691     1.27547591
H    -1.08439809     0.17589671     1.62459966
H    -3.22410023     1.32016982     2.61542694
H     2.61562804     0.59763838    -1.02569412
Cl     5.47646402     0.88631381    -1.59890388
