70
 energy: -143.099737538824 gnorm: 0.092909569429 xtb: 6.6.1 (8d0f1dd)
O     1.41432277    -2.57134719    -3.39547582
H     0.84132650    -3.22311212    -3.80317151
H     1.83898710    -2.97950463    -2.63890038
O     0.76743522    -0.27388355    -5.13090583
H     1.11790778    -1.03881562    -4.67113773
H     1.11315456     0.50005907    -4.68276632
O    -1.51048093     3.27087497     3.66154488
H    -1.06317121     3.45559754     4.48927081
H    -1.60064262     2.31970575     3.58100707
O     1.99666451    -0.51583282     5.00180896
H     2.77276913    -1.07827516     5.02748384
H     2.30691983     0.39124934     5.01860336
O    -4.92971198     1.15318625    -1.68405785
H    -4.11287595     1.29089766    -2.16691773
H    -5.70765896     1.28133870    -2.22968919
O    -1.56885557    -3.10922176    -5.17568380
H    -2.26942153    -2.46155196    -5.27091583
H    -0.76972449    -2.73475579    -5.55052272
O     1.67950318    -5.21217667    -1.65731108
H     0.90326842    -5.50293515    -2.13924109
H     2.13858862    -5.99255334    -1.34173003
O    -2.60158035    -2.10243441    -0.61103596
H    -3.50759925    -2.06024621    -0.92198305
H    -2.05008702    -1.51644346    -1.13238633
O     1.04340931     1.94267388    -3.04735311
H     1.72682237     2.53026254    -3.37449950
H     0.49128252     2.46887369    -2.46631302
O    -0.40297054    -1.19352818    -1.78881108
H     0.09245013    -1.81445721    -2.32578765
H     0.01428426    -0.33426196    -1.70575517
O    -2.09697879     0.18201818    -3.09397284
Cl    -2.19734170     1.81053870    -3.58285976
H    -1.25100194    -0.18398693    -3.37848972
O     0.46623945     4.87845666     2.67437595
Cl     0.94880933     5.18819322     1.07051990
H    -0.41692381     4.50382566     2.77567438
O    -0.81575202     0.01206521     4.11402649
Cl    -1.26688437    -1.58861702     4.48207518
H     0.03564166     0.19773614     4.52783954
O     1.40433549     2.27587567     4.01362231
Cl     3.03803315     2.39215624     4.48124570
H     1.33491112     2.86440276     3.25243626
C     5.02812162    -0.58537830     0.12470071
C     4.47937408    -1.27058907     1.20177315
C     3.18257514    -0.98589839     1.58511733
C     2.32120096    -0.11824309     0.90533808
C     2.86734192     0.51364269    -0.21150840
C     4.21128192     0.33849851    -0.52062252
H     5.07050473    -2.00453274     1.73349322
H     2.86111455    -1.44457204     2.51370611
C    -2.40820320     1.35295754     1.15893941
C    -2.43922808     2.57733685     0.48677107
C    -3.49636423     0.86413399     1.88750945
C    -3.66512137     3.21968866     0.36744225
H    -1.61267600     3.03268706    -0.03460583
C    -4.68672413     1.57138480     1.84389840
C    -4.75917552     2.70082200     1.04189781
H    -3.75844812     4.21862021    -0.03846548
H    -5.60815615     1.28583051     2.33401355
Cl     6.69344171    -0.86395641    -0.26812484
Cl    -6.23964309     3.58321270     0.77315569
N     1.00712672     0.12632785     1.33304017
H     0.75563568    -0.26823008     2.22569412
C     0.01024312     0.88259717     0.73714245
O     0.19286370     1.83480775     0.01660161
N    -1.25290606     0.54900410     1.18594455
H    -1.24079703    -0.21147033     1.84729172
H    -3.48724333    -0.08901743     2.40601040
H     2.28523638     1.16979154    -0.83807594
Cl     5.07635013     1.24770796    -1.71659267
