70
 energy: -143.013148711833 gnorm: 0.089325590170 xtb: 6.6.1 (8d0f1dd)
O    -1.94422823     3.28399409    -4.59597209
H    -1.23223422     2.64470297    -4.65687704
H    -2.86104136     3.00617637    -4.55585132
O     3.29103358    -0.17460846    -4.64261682
H     3.74197127    -0.20124638    -3.79687193
H     2.37338500    -0.20593740    -4.36643273
O    -0.57241107     2.63804775     4.95479938
H    -0.98377553     3.02273791     5.73077063
H    -1.01012388     3.17459552     4.29157819
O    -0.43521914    -3.68228111     5.37343336
H    -0.14616972    -4.48976331     4.94475877
H    -0.07914574    -3.00318128     4.79778275
O    -1.06954446    -5.57555800    -0.24316459
H    -1.70492930    -4.86456917    -0.14256544
H    -0.99831434    -5.91524332     0.65063531
O     0.78452468    -2.53052813    -4.04934497
H     0.21047126    -2.87091218    -3.36091244
H     0.99243768    -1.59474942    -4.07007779
O    -3.87632835     0.33080975    -3.71400348
H    -3.58307520     0.51433689    -2.81976759
H    -4.31386124    -0.52235713    -3.71086822
O     3.05962102    -4.60884325     1.62378115
H     2.36427217    -3.97643998     1.43432333
H     2.64976602    -5.38636252     1.24061124
O     1.88672286     2.11000839    -4.24218139
H     1.75036658     3.05860999    -4.21217204
H     2.80775972     1.90503362    -4.41251714
O     3.31895376    -2.50195920    -0.89462252
H     4.02178718    -1.85902722    -1.00417609
H     3.75676512    -3.31310256    -1.15864136
O    -5.70914789    -0.23510978    -0.51724906
Cl    -5.27999429    -1.83301413    -0.92183662
H    -5.21877515     0.23476389    -1.20233279
O    -1.55554452     5.52718065     2.38951365
Cl    -0.29899304     4.45052050     1.98572416
H    -2.38418271     5.11785049     2.11311780
O    -3.83598472    -2.05039409     2.41501701
Cl    -5.51690781    -2.10208940     2.68518168
H    -3.47810867    -1.90461054     3.29890502
O     4.74787689     5.13595250    -0.52546804
Cl     5.05821462     4.94976576     1.13891948
H     3.88416828     5.47616256    -0.78786591
C     5.45092232    -0.46187997     1.08816619
C     4.69456331    -1.06818541     2.08367471
C     3.37525063    -0.71217068     2.28948148
C     2.77300608     0.25581935     1.47881039
C     3.52447021     0.86246107     0.47273738
C     4.85490555     0.50599413     0.28492218
H     5.15822061    -1.80078687     2.73109413
H     2.85907852    -1.22174261     3.09564416
C    -1.78682142     2.02590071     0.99738999
C    -1.89185412     2.56293917    -0.28808081
C    -2.88456999     2.07789236     1.86116196
C    -3.02809722     3.28175717    -0.63725378
H    -1.04381418     2.55506885    -0.95376264
C    -4.05467162     2.71591761     1.48320932
C    -4.08946641     3.35255187     0.25131297
H    -3.19333927     3.77630835    -1.58564683
H    -4.92452489     2.80128886     2.12106359
Cl     7.09418034    -0.93875080     0.80976764
Cl    -5.51746361     4.27690426    -0.13471356
N     1.42764308     0.53710619     1.76237873
H     1.14177504     0.56740562     2.72835808
C     0.53350721     1.12158915     0.87936410
O     0.79911560     1.32569546    -0.28125083
N    -0.65710266     1.37757128     1.53141827
H    -0.78580638     0.99919436     2.45668270
H    -2.72132010     1.52663227     2.78142595
H     3.09713844     1.64337281    -0.13515187
Cl     5.75311404     1.27885962    -0.98048275
