70
 energy: -143.152006772915 gnorm: 0.102954481461 xtb: 6.6.1 (8d0f1dd)
O    -0.63220778    -1.89921508     2.69401752
H     0.03237713    -1.67371803     2.04070597
H    -1.10311574    -2.66770156     2.36688925
O    -2.92696774    -2.17883060    -1.77241661
H    -2.51945734    -2.64137348    -1.03802696
H    -2.38860055    -1.38628702    -1.80947747
O    -1.24709051    -4.98296960    -2.76517675
H    -2.16597118    -4.81304080    -2.97993506
H    -0.87310894    -5.62196992    -3.37440145
O    -0.91831157    -0.53524822    -1.00447233
H    -0.23500062     0.13737685    -1.00367793
H    -0.59670989    -1.36014343    -0.63642517
O    -2.54425013     0.51816514     0.91610989
H    -3.43772361     0.59439537     0.57664960
H    -1.95138285     0.20792617     0.22937976
O     1.91116506    -1.50228515    -1.79829797
H     1.19762259    -1.69844881    -2.40798227
H     2.70878930    -2.00125365    -1.98313701
O    -0.63088387    -3.25053794    -0.39583074
H    -0.71183271    -3.72821948    -1.22323939
H    -0.46807779    -3.87793272     0.31071618
O     0.41562622     0.14986632     4.69501049
H     0.70434453    -0.63452376     5.16481057
H    -0.15202850    -0.13545466     3.97689032
O    -2.03103443     0.28802538    -3.81228936
H    -2.92250486     0.54589352    -3.57120202
H    -1.73951020     0.98800098    -4.39913312
O    -0.54310779    -2.08997281    -3.80503157
H    -0.84415959    -1.23980996    -4.13049936
H    -1.17510183    -2.37759950    -3.14382606
O    -4.41080789     0.10031316    -1.87965284
Cl    -5.20484332     0.74848721    -3.23999851
H    -4.05604502    -0.76419722    -2.11913464
O     2.08818709     2.44207015     4.25161642
Cl     1.36021707     3.96746167     4.46234133
H     1.51537183     1.67118126     4.34217079
O     1.28796467    -1.24666541     0.76769270
Cl     2.50433673    -2.41718641     0.99459229
H     1.54728578    -0.91180062    -0.09902771
O    -1.70598533     1.68604632     3.06265239
Cl    -2.94025502     2.69225400     3.66704072
H    -2.02279202     1.19194798     2.29708827
C     5.65948984    -0.27291212     0.96101967
C     5.14076461     0.00507734     2.21973666
C     3.94393448     0.67581444     2.38526093
C     3.20543510     0.99564327     1.24104983
C     3.64785144     0.68482892    -0.04446863
C     4.90626653     0.10326260    -0.14729636
H     5.77054319    -0.14115861     3.08739379
H     3.63347857     0.93743456     3.39082919
C    -0.98723950     3.58743551     0.38469480
C    -1.60408196     3.28761629    -0.83247051
C    -1.70499038     4.41537603     1.25256886
C    -2.77548730     3.89728777    -1.26349234
H    -1.06066123     2.73763930    -1.58385942
C    -2.95285223     4.90688680     0.90569663
C    -3.50837902     4.61492935    -0.33132941
H    -3.15325073     3.81515708    -2.27437541
H    -3.46954930     5.49921402     1.64931192
Cl     7.31288582    -0.74457228     0.73959953
Cl    -5.05525826     5.27062314    -0.80021130
N     2.02797688     1.72884515     1.45445590
H     1.97937070     2.08662958     2.39540356
C     1.06615927     2.06588907     0.51524211
O     0.97622198     1.45193683    -0.52119809
N     0.20881434     3.07123755     0.91833964
H     0.49648501     3.46811933     1.79900900
H    -1.31553661     4.65637958     2.23626960
H     3.07646114     0.95958063    -0.91624243
Cl     5.47689132    -0.26368742    -1.74262837
