%nproc=8
%mem=4000MB
#opt=(noeigen,calcfc,ts,recalc=5,maxcyc=200) freq B3LYP/SVP em=GD3BJ

ts-4238.gjf

0 2
O  3.99081464905177  -4.98689400395524  -3.70774202150655
Cl  -1.67983973259715  -4.12983361137535  -3.47045265290631
H  4.82908528683158  -4.94755651890179  -3.13750556886048
C  -5.39665779037528  -1.75789849810441  -1.10338502355711
C  -4.46443553356526  -0.76371797600085  -1.01499149107012
C  -3.11269495748332  -1.09723647839299  -0.97144362213477
C  -2.77405747771653  -2.46643892503722  -0.96617681665221
C  -3.72527042969997  -3.45745634984576  -0.73228574896461
C  -5.02139107014099  -3.07752997223318  -0.94687681085524
H  -4.89128531948714  0.18932031708311  -1.30435406045441
H  -2.35053059527737  -0.33541894929427  -0.95807871164893
C  1.51076330629300  -3.06849390723786  -1.47753125612300
C  2.96651239782261  -4.20374189355807  -3.33410686730286
C  1.63130598953587  -2.88809444455364  -0.03593774108583
C  2.62701610260558  -3.80905750751404  -1.98854554605369
C  2.80155605169533  -3.56707134776833  0.33654870239198
C  3.32037948288168  -4.16313949026719  -0.77152062889037
H  3.18468049105488  -3.40088383123850  1.33489981283366
Cl  -7.08803225602018  -1.33510355708901  -1.40105174230303
Cl  4.59428730413315  -5.18647506652580  -0.87762673271838
N  -1.56770580271581  -2.67307927034683  -1.41478114510819
C  -0.73625833118495  -3.16013110821779  -2.19568992398678
O  2.44270748693924  -3.58305103557322  -4.38952828989660
N  0.52201253942203  -2.95277897041750  -2.35923261453784
H  1.48476289364766  -3.41939536738446  -3.90037112689230
H  0.84212252365031  -2.58581625138176  0.61671107794895
H  -3.46769194784679  -4.50176999513833  -0.87226182752340
Cl  -5.97566665667004  -4.18421580648578  -1.77613924218487

