70
 energy: -143.146232036053 gnorm: 0.105818799627 xtb: 6.6.1 (8d0f1dd)
O     0.41193044    -1.26167033     2.92884802
H    -0.43957807    -1.45890304     3.32301871
H     0.56761762    -1.78257386     2.13906343
O    -3.94338060    -2.22796666    -1.69095640
H    -3.06338091    -2.60217667    -1.62091205
H    -4.36266367    -2.46746513    -0.86259641
O     0.63089721    -5.11625300    -0.77056531
H     1.19369440    -4.61797661    -0.17531865
H     0.85058466    -4.86245744    -1.66870984
O    -1.25644801     0.73517396    -1.06879653
H    -0.61565537     1.35974091    -0.72435511
H    -0.79660857    -0.10521421    -1.02837517
O    -3.62400444     0.98059562     0.45164958
H    -4.18468139     1.51836421    -0.11029836
H    -2.79456655     0.96732624    -0.02917763
O     1.58387239    -1.12279851    -2.17402545
H     0.88440681    -0.89372122    -2.78852482
H     2.14822089    -1.85931111    -2.41568520
O    -1.35779821    -2.94675302    -0.82886424
H    -0.85391920    -3.71116658    -0.54405677
H    -1.00174431    -2.20810918    -0.33190399
O     1.32501750     0.74982099     4.22033042
H     1.04697827     0.58337853     5.12273236
H     0.90560749     0.14016141     3.61061987
O    -0.76239712    -0.18593126    -3.79942846
H    -1.05295487     0.31284142    -3.03383026
H    -0.64412608     0.43700429    -4.51866491
O    -0.06694444    -3.22029078    -3.34378609
H    -0.33973494    -2.47593941    -3.88310483
H    -0.56458829    -3.22302926    -2.52422438
O    -4.31278818     0.34778626    -2.38408411
Cl    -4.30341942     0.79998289    -4.02621464
H    -4.14127436    -0.59481978    -2.27155287
O     1.38996561     3.49806034     4.03577948
Cl     0.36484813     4.40005284     5.05396823
H     1.78308959     2.72439121     4.45705934
O     1.24610031    -2.14659431     0.21011712
Cl     2.74173176    -2.02661924     1.01625382
H     1.37078158    -1.74763137    -0.65929031
O    -3.16888123     0.29135848     3.25285682
Cl    -2.42349571     1.70736360     3.83637267
H    -3.70366369     0.52081294     2.48347626
C     5.58093453    -0.35583721     0.51921056
C     5.50238091     0.41288380     1.67403523
C     4.38707114     1.21985918     1.79471620
C     3.35398106     1.26610762     0.85265622
C     3.50606800     0.54580888    -0.33179934
C     4.58322414    -0.32481526    -0.45075290
H     6.22560111     0.30240445     2.47126909
H     4.28254840     1.76769353     2.72474205
C    -0.93258000     3.80241623     0.88454310
C    -1.30494265     3.83051478    -0.46172366
C    -1.86540618     4.28659985     1.80609553
C    -2.52230494     4.33558325    -0.90059101
H    -0.63885439     3.39220574    -1.18738040
C    -3.06154590     4.83743029     1.37609780
C    -3.40835804     4.84959445     0.03309518
H    -2.86472364     4.22935410    -1.92176684
H    -3.70003530     5.27214526     2.13382156
Cl     6.82343240    -1.54836128     0.32098331
Cl    -5.01292140     5.37809236    -0.40128530
N     2.16594400     1.87473547     1.28587128
H     2.22531906     2.21417347     2.23297807
C     1.09113228     2.39570483     0.58288828
O     0.85064493     2.07411200    -0.55640025
N     0.29398240     3.25819273     1.31015737
H     0.38523526     3.25198719     2.31389166
H    -1.62508768     4.22089402     2.86219869
H     2.70117642     0.61329440    -1.04563426
Cl     4.80737577    -1.19276820    -1.93458684
