70
 energy: -143.118558588277 gnorm: 0.117446684983 xtb: 6.6.1 (8d0f1dd)
O     1.98290624    -3.37396978    -0.44385758
H     2.92852029    -3.47567056    -0.56555003
H     1.59289087    -2.99779839    -1.23488335
O    -1.77653357     1.03118260    -2.87914451
H    -1.13714738     0.36345022    -2.62486598
H    -1.28630026     1.85165352    -2.80274527
O    -0.79337955     0.61994903     3.30040679
H    -1.66136906     0.52933251     3.69754843
H    -0.46960534    -0.23049811     2.99833349
O    -3.39982428     0.11974305     3.19516797
H    -3.02504891    -0.76011156     3.12633290
H    -3.77004229     0.49434084     2.39394791
O     1.44222322    -1.87259174    -2.76673277
H     1.48926116    -2.46598097    -3.51840812
H     1.59143401    -0.96412712    -3.03462509
O    -2.82034470    -2.60323308    -2.12282806
H    -3.35202694    -2.88797695    -1.37746043
H    -3.42755694    -2.23213947    -2.76541835
O    -0.61441882    -1.53365785    -0.77339937
H    -0.10982366    -1.73563405    -1.56328973
H    -1.54447895    -1.63186928    -0.98477879
O    -5.79839600    -2.04924850    -1.84513783
H    -5.43290810    -1.16287809    -1.83492704
H    -6.67115725    -2.03372844    -2.24185366
O     1.30876997     1.18574112    -3.71705051
H     1.13434077     0.93165113    -2.80911256
H     1.72188327     2.02139236    -3.49263524
O    -3.14212233    -0.98176173     0.42702740
H    -3.38308561    -0.24142903    -0.13259973
H    -2.21321840    -1.15013029     0.25931392
O    -3.97573768     0.94019480    -1.47215449
Cl    -5.60645025     1.34735664    -1.74812183
H    -3.49656659     0.93632724    -2.30939192
O     1.84924885     0.73115824     3.84128621
Cl     3.37809587     1.44173645     4.08391775
H     1.28864680     1.08860533     4.54024544
O     0.30480157    -2.02381192     2.17470606
Cl     0.96785058    -2.65794171     3.60977025
H     0.65799261    -2.35097096     1.33875798
O    -0.70871657     3.49608718     4.44898656
Cl     0.68132130     3.04693706     5.32489735
H    -0.99661008     2.70084283     3.98499106
C     5.44732041    -0.21701808     0.00370726
C     4.68679450    -0.72946983     1.04760196
C     3.37352702    -0.36752011     1.28000215
C     2.79293715     0.56209253     0.41073430
C     3.49870821     1.08095570    -0.67442177
C     4.85010849     0.77078412    -0.77398299
H     5.02540367    -1.46049745     1.76994356
H     2.85247300    -0.71235188     2.16633688
C    -1.51336198     2.78842696     0.08113920
C    -1.21659286     3.72745324    -0.90983762
C    -2.81936120     2.69546682     0.57060980
C    -2.22822918     4.41737476    -1.56578709
H    -0.21677197     3.88806946    -1.27987353
C    -3.85807022     3.29498036    -0.12273665
C    -3.52727346     4.15290516    -1.16130342
H    -2.08224378     5.13074495    -2.36649077
H    -4.85214065     3.10539360     0.26024095
Cl     7.06468184    -0.79087192    -0.24132822
Cl    -4.78631733     4.90512162    -2.10554849
N     1.48636463     0.93704225     0.75975561
H     1.22135948     0.72636014     1.70903956
C     0.53344665     1.56052297    -0.03020211
O     0.68329341     1.70314071    -1.22034511
N    -0.50856377     2.04929893     0.73371258
H    -0.60431987     1.71175360     1.67856278
H    -2.97991237     2.13092761     1.48326680
H     2.96994145     1.73002563    -1.35344969
Cl     5.93283524     1.43374799    -1.95446214
