70
 energy: -143.126621109593 gnorm: 0.086188443535 xtb: 6.6.1 (8d0f1dd)
O    -0.83344696    -3.28033645     0.13182548
H    -1.10592639    -3.59774657    -0.73092813
H    -1.62749610    -3.04474782     0.61486030
O    -0.32267184     1.23177736    -2.68273935
H    -0.31050606     1.85391462    -3.41221589
H     0.43439075     1.42567172    -2.12722221
O    -1.85922105     0.66965985     4.84305592
H    -1.52098494     1.52552520     5.11218312
H    -2.76900785     0.85559182     4.60419268
O     2.29136471     1.11654739     2.52464026
H     2.51898407     0.18625305     2.47902401
H     3.09733190     1.63217933     2.46235822
O    -3.06078833    -0.66896659    -1.99672826
H    -3.55667467    -0.51587192    -2.80295276
H    -3.67704584    -0.56857117    -1.26907068
O    -1.03341840    -1.62676835    -3.37707254
H    -0.21868604    -1.56855241    -3.87922797
H    -1.36750997    -0.78147360    -3.07178733
O    -3.87372773    -2.53608040     0.11153677
H    -3.56655974    -2.75605690    -0.76970985
H    -4.39457539    -3.31600939     0.31095361
O    -2.74757878    -3.67902259    -2.30174402
H    -2.03659554    -3.21435597    -2.74663272
H    -3.42595090    -3.84748358    -2.95807372
O     1.96868057     2.51339355    -1.91096240
H     2.70169464     3.12432096    -2.00475292
H     1.51732505     2.75608141    -1.10058063
O     1.59330064    -0.74565707    -3.85305800
H     2.50884848    -0.71955682    -3.56945745
H     1.02323860    -0.41679774    -3.15576386
O    -3.04713422     2.06867528    -2.16450669
Cl    -3.03150021     2.94874577    -3.62272263
H    -2.22667308     1.56624183    -2.09386290
O     2.68549805     4.69088820     0.62195594
Cl     2.51409041     6.37916000     0.47525075
H     2.02534737     4.52124347     1.30460435
O    -0.71665132    -1.47240197     3.37593566
Cl    -0.76723370    -2.99805277     4.13157770
H    -1.00357388    -0.82012527     4.02616384
O     0.98206026     3.20392350     4.04532230
Cl     0.03187352     4.55020906     3.61425248
H     0.85136669     2.41288499     3.50888466
C     5.12971349    -1.34332005    -0.44388385
C     4.36886864    -2.50568194    -0.47131423
C     2.99589931    -2.47116825    -0.31817061
C     2.41278112    -1.20987984    -0.15687688
C     3.18656853    -0.04966325    -0.16366636
C     4.56336554    -0.07510559    -0.35388771
H     4.93112615    -3.41593932    -0.63297097
H     2.37972781    -3.35330217    -0.18338203
C    -1.93847167     0.82851569     1.12781573
C    -1.82621764     2.19714165     0.87063949
C    -3.15876010     0.37031658     1.63259987
C    -2.86055286     3.09516308     1.10167576
H    -0.86421360     2.63188863     0.65175737
C    -4.22490284     1.24253678     1.77968475
C    -4.07972856     2.60064478     1.53771439
H    -2.63166103     4.14730141     0.99236565
H    -5.17113658     0.90993568     2.18565189
Cl     6.84972323    -1.54890126    -0.51105054
Cl    -5.44832719     3.64282926     1.82652101
N     1.05407035    -1.05766252     0.15977756
H     0.51551666    -1.90789595     0.21286094
C     0.35470229     0.12740254     0.32506371
O     0.72824228     1.23831745     0.03253954
N    -0.87697891    -0.07201111     0.91789527
H    -1.03624614    -1.02827780     1.19364170
H    -3.34039986    -0.65696371     1.93114019
H     2.79167949     0.94789843    -0.05927133
Cl     5.53951709     1.35671107    -0.40265719
