70
 energy: -143.140345868338 gnorm: 0.106257421897 xtb: 6.6.1 (8d0f1dd)
O    -1.37366010    -1.45604186     2.75576220
H    -1.72720956    -1.40566552     3.64559535
H    -1.93618885    -1.92207289     2.13470248
O    -1.24648556     4.13520256    -4.96195762
H    -0.84626240     3.72928238    -5.73292391
H    -0.61808767     3.85917806    -4.29243194
O    -3.39821281    -1.16997994     4.56919388
H    -3.44334028    -0.94567017     5.50031538
H    -4.20192928    -1.59169262     4.26010389
O     1.59101806     1.86623504     3.21424485
H     2.15353421     1.47189740     3.88313376
H     1.49118347     2.79906361     3.41224075
O    -1.14464813    -1.52403007    -1.22628808
H    -0.51652729    -2.21551372    -1.44228288
H    -0.86585180    -0.75633272    -1.72853453
O     0.48973920    -3.80992308    -1.60545941
H     1.15355551    -3.50966427    -2.22878159
H     0.73365050    -4.68434062    -1.29684850
O    -2.63373409    -2.88686223     0.62570885
H    -2.63003423    -2.18296420    -0.02532979
H    -2.01413153    -3.52517237     0.26794997
O     1.38765749    -1.36912568    -3.42081356
H     0.45973943    -1.33254873    -3.65949405
H     1.50580000    -0.45677366    -3.15064205
O     0.40814822     3.07917210    -2.56319167
H     0.21944618     2.74472351    -1.68462791
H     0.66601087     3.99288734    -2.42914264
O    -1.31515546    -0.03305599    -3.75516946
H    -1.81384227     0.76336361    -3.56447171
H    -1.87734762    -0.74489468    -4.06591684
O    -3.03445594     2.33039078    -3.69193630
Cl    -2.75170752     3.09308672    -2.19543690
H    -2.65633281     2.90074820    -4.37186403
O     1.91825144     4.13542331     1.45444008
Cl     2.96491792     5.20464973     0.64055508
H     1.84726413     3.29563976     0.98506655
O     1.23978078    -1.95668117     3.48767151
Cl     1.71944837    -1.13328514     4.89944408
H     0.35019654    -1.61104675     3.34709115
O    -0.65694524     0.74826850     4.48926818
Cl    -1.83073842     1.96060217     4.25771374
H     0.17017467     1.09151412     4.13059958
C     4.44322531    -2.19389739    -0.80133811
C     3.57390613    -2.95043690    -0.02502979
C     2.34535846    -2.44174034     0.35125111
C     2.02948529    -1.08446038     0.22916071
C     2.97904738    -0.30372617    -0.42938418
C     4.13461616    -0.84820481    -0.97765898
H     3.84470552    -3.98343440     0.14937993
H     1.65281606    -3.10399532     0.85899006
C    -1.75698776     1.91351489     1.03043465
C    -1.39857787     3.24618669     0.81270621
C    -3.09106077     1.60685588     1.31339506
C    -2.45209187     4.13740843     0.65301404
H    -0.36562897     3.53274881     0.69753363
C    -4.14251626     2.49745622     1.17079527
C    -3.78498221     3.76977984     0.74955363
H    -2.24302493     5.16266902     0.37648752
H    -5.18864752     2.30062768     1.36485438
Cl     5.86239020    -3.01471059    -1.36476084
Cl    -5.01605986     4.95429728     0.39743698
N     0.86186160    -0.54647547     0.79197693
H     0.31237519    -1.18486583     1.34540005
C     0.33157630     0.69940190     0.49633993
O     0.92252677     1.50768861    -0.17944438
N    -0.85721806     0.84197097     1.18532138
H    -1.15963242     0.11756604     1.81748518
H    -3.35001017     0.56857442     1.49323069
H     2.89992582     0.76747676    -0.52009794
Cl     5.19454298     0.26600863    -1.77792939
