%nproc=8
%mem=4000MB
#opt=(noeigen,calcfc,ts,recalc=5,maxcyc=200) freq B3LYP/SVP em=GD3BJ

ts-3466.gjf

0 1
O  0.66333160365635  3.57885951221241  -3.27236674183418
H  1.28034603498366  4.27158005607782  -3.05211211282867
Cl  2.17980796746958  5.03383938833711  0.74175171857607
Cl  3.26661538557286  2.69283636385269  -2.52552920515383
C  0.05625575880452  3.77018106099769  -0.79336742485185
C  0.45295264105640  2.94873158874990  -2.00518099034864
C  1.64963370641831  1.94503809992087  -1.70115055414833
C  1.76773563990348  1.48412618049581  -0.35271387984099
C  0.99262404385016  2.12729076220021  0.73900840160808
C  0.08417607881545  3.11192107677730  0.45934891002320
H  -0.41813561952690  2.36204719380380  -2.18455361396174
H  1.52668996512220  1.14541276217725  -2.37617764729629
C  3.12640272609221  -0.95981035717156  -2.92988569443153
C  4.18024446068723  -0.21092780575968  -3.59021190245226
C  2.33704006892890  -1.55910542181905  -3.93348931136890
C  4.05228241270799  0.16278819182623  -4.92056236524675
H  4.94972902605532  0.29948020792545  -2.98942679284376
C  2.32905608323920  -1.32267615699998  -5.32302592234977
C  3.14166419840889  -0.37668265755639  -5.81486760160623
H  4.85848615067837  0.79584368277027  -5.30820741768088
Cl  -0.68880969682527  5.36430657885415  -0.68313494369164
Cl  3.26804812577159  0.12940155192467  -7.44838079509472
N  2.41727959566465  0.42064342149970  0.04142094901343
C  2.73190595686998  -0.84770603749826  -0.26769860586142
O  2.69805906666041  -1.80816243525377  0.45414918956048
N  3.15921993576855  -1.20893855543679  -1.64214991824258
H  1.79884714132299  -2.34161435451360  -3.33830923942934
H  1.06354889342323  1.99836403841614  1.81805306956951
Cl  -1.09618307623331  3.33341660106185  1.78690978881554

