%nproc=8
%mem=4000MB
#opt=(noeigen,calcfc,ts,recalc=5,maxcyc=200) freq B3LYP/SVP em=GD3BJ

ts-3496.gjf

0 1
O  1.82813711042699  4.23586936861161  -2.46467078389437
H  1.12694714715148  4.69435807656889  -2.99910325058599
Cl  2.07932127191696  4.73397400383318  0.61200341792826
Cl  3.61017250602137  2.64296444161640  -1.08260450580323
C  0.50794824976226  3.91181875188775  -0.18470635444648
C  1.07420761210929  3.31523726778090  -1.63165513282602
C  2.06261077164349  2.12964762257368  -1.34803427496176
C  1.53783701738139  1.19969048417071  -0.06640305938900
C  0.72402249690240  1.71893424242899  0.89678877596870
C  -0.00756761756294  2.93203041266482  0.73889384813554
H  0.18010558017017  2.90529816527067  -2.19365017016363
H  2.10045711859260  1.57967609967102  -2.30379519505662
C  2.20982772285058  -0.77777433659077  -3.52719074141084
C  3.44816233112555  -0.27101437704850  -3.99663355287554
C  1.30678867222871  -0.87281369825845  -4.68674600393216
C  3.71035015438451  0.42994353890470  -5.12876666599722
H  4.23267665725982  -0.38261131838537  -3.22354404286152
C  1.58963846831905  -0.11470422823845  -5.78004338113776
C  2.71105464492014  0.65365048640672  -6.07424680081481
H  4.73589000793313  0.71627320234210  -5.35873578306882
Cl  -0.80182447594230  5.15643434229415  -0.17970816026611
Cl  3.13275480793086  1.82590162524124  -7.32939441525412
N  1.80923834258053  -0.04612710247780  -0.11067525756518
C  2.44839601807418  -0.92857887241560  -1.03314061064089
O  3.45223865577765  -1.45893609359574  -0.66787716934743
N  1.97929875626199  -0.99306794616063  -2.25846710289613
H  0.43728241893210  -1.53267615237411  -4.50153398091596
H  0.26497126920703  0.95734671841625  1.53539787175050
Cl  -1.13420323393540  3.30793385292904  2.05622421507954

