%nproc=8
%mem=4000MB
#opt=(noeigen,calcfc,ts,recalc=5,maxcyc=200) freq B3LYP/SVP em=GD3BJ

ts-3506.gjf

0 1
O  1.57519446676339  4.20085597451911  -2.13041475831219
H  2.00819959844985  3.68500395589072  -2.79844782502094
Cl  1.86188886364139  4.84938518532528  0.89199572018743
Cl  3.59267543708914  2.35673534803387  -1.05683606275469
C  0.57275417623299  3.82404963074751  0.00826699611313
C  0.99796227370264  3.25157873181901  -1.33338669468747
C  1.76972583966263  1.93327884405684  -1.26471839365261
C  1.05985282562173  0.91404035758400  -0.47115041512128
C  0.15372425863186  1.32004262902481  0.47537529505280
C  0.00537659511687  2.64411131662391  0.77158058144261
H  0.07925962056627  2.85574958925907  -1.76967759721873
H  1.73434347160478  1.68900557659378  -2.35507847376232
C  1.90315761513361  -0.46765181345554  -3.71476745971884
C  3.23706318378114  0.09730662175423  -3.86126938832951
C  0.85434110985937  -0.25040058637563  -4.71397223400681
C  3.54910812424445  0.78792791911261  -4.98436363413206
H  4.03005387650029  -0.07157112201336  -3.12224144756030
C  1.30764668920298  0.41517093177347  -5.78927438505285
C  2.52304840650161  0.96993325995137  -5.88275383988094
H  4.49648436290874  1.22300478446628  -5.29923975336114
Cl  -0.64833637420255  5.14063726570224  -0.39013348766816
Cl  3.01727130940284  1.97308000921785  -7.16476004167156
N  1.48131890522587  -0.31925753228137  -0.40787122955086
C  2.33309320860154  -0.84468689840905  -1.39312605918185
O  3.55923450811095  -0.92547032452105  -1.28093331953330
N  1.55941986949312  -1.09181416528203  -2.52869386282427
H  -0.07497144161838  -0.67021315716355  -4.50851622173560
H  -0.30364134197189  0.55989130021050  1.08558505390088
Cl  -0.77666279308044  3.27659588364131  2.17322388594346

