70
 energy: -143.130549537557 gnorm: 0.114530187373 xtb: 6.6.1 (8d0f1dd)
O    -3.03589632    -0.05097261     2.16450960
H    -3.59109376     0.26354375     2.88017243
H    -3.08236080    -1.00088934     2.28632068
O    -3.33874482     0.31747462    -1.19244008
H    -3.49012093     0.54520715    -0.27343956
H    -2.57557244    -0.26109754    -1.23891840
O    -0.51206486     0.36768066     2.82938903
H    -0.31249239    -0.55756896     2.98243347
H    -1.39051609     0.52666225     2.47955099
O    -3.38160085    -2.78351886     1.61218684
H    -3.96136211    -3.03170483     0.88995449
H    -2.90435515    -3.60405944     1.74742056
O     0.64203363    -0.71437444    -2.90169623
H     0.36971974     0.10793144    -2.49060332
H     1.53377990    -0.66981624    -3.25118337
O     0.93577325    -2.32749187    -0.19435260
H     0.04876251    -2.63268862    -0.39285919
H     1.25822234    -1.84426706    -0.95714996
O    -1.30030441    -2.87996510    -2.18302060
H    -1.53064390    -3.11181973    -3.08442206
H    -0.87894722    -2.02168153    -2.25475630
O    -4.71125033    -2.19462484    -1.06159114
H    -4.46149342    -1.26992862    -1.10514049
H    -3.94652837    -2.74489015    -1.23976217
O    -1.35834407    -0.95707820    -0.23310577
H    -0.65510909    -0.31832209    -0.36268120
H    -1.39384477    -1.18667055     0.69714413
O    -2.19246102    -0.59144902    -4.21629060
H    -2.85707179    -1.25029435    -4.42498580
H    -2.45428073    -0.22573343    -3.36950796
O     0.48049363     2.11194184    -3.88097316
Cl     0.79260131     3.28361153    -5.07719268
H     0.13608935     1.29574647    -4.26280718
O    -0.00897333     3.90631622     5.22348913
Cl     1.11127159     3.94665935     3.94107406
H    -0.58371232     3.17271115     4.97431892
O    -0.02150724    -2.30498574     2.49032798
Cl     1.10205537    -2.68346766     3.71324347
H     0.53325667    -2.22945034     1.70475969
O     0.44197965     1.05344802     5.30115380
Cl     2.13627172     0.89812108     5.22109909
H     0.05765719     0.81411079     4.44933104
C     4.66775845    -0.61737189    -0.60352671
C     4.39723663    -0.84850273     0.73964824
C     3.33484985    -0.22091554     1.36186811
C     2.57437566     0.69086112     0.62211600
C     2.87378654     0.97773557    -0.70940630
C     3.89585310     0.27703895    -1.33933144
H     5.00803902    -1.61961215     1.19036499
H     3.28196762    -0.31904022     2.44055736
C    -1.62050185     2.98593234     0.79767453
C    -1.89939275     3.08885041    -0.56742811
C    -2.56181092     3.31862182     1.77599559
C    -3.17421748     3.50216770    -0.93302388
H    -1.20445222     2.75846701    -1.32259067
C    -3.81248440     3.79353286     1.41636010
C    -4.05644604     3.90852484     0.05571978
H    -3.48307260     3.51451195    -1.97022750
H    -4.57146435     4.03095154     2.15009907
Cl     6.12655682    -1.33669171    -1.20327231
Cl    -5.61290364     4.41228303    -0.54949698
N     1.66966238     1.55497171     1.25799473
H     1.62377309     1.51057148     2.26381654
C     0.49837304     1.78339650     0.55321276
O     0.27698140     1.34804465    -0.55163512
N    -0.36450072     2.57667587     1.28424638
H    -0.18073076     2.97969772     2.18959164
H    -2.34479649     3.32631896     2.83913694
H     2.31378831     1.69109536    -1.29205948
Cl     4.49699074     0.66066485    -2.91946242
