70
 energy: -143.148781113203 gnorm: 0.108838474061 xtb: 6.6.1 (8d0f1dd)
O     0.48102162    -2.12871644     3.28911591
H     0.37342430    -1.50527850     2.56863970
H     1.04327733    -2.78047477     2.86672002
O    -2.11317300     1.18462982     1.03006130
H    -2.09129539     1.77702180     1.78367387
H    -2.80598345     0.52844461     1.12372411
O    -1.41431822    -2.62426783    -0.26053221
H    -1.21898326    -2.16919384    -1.08156237
H    -0.81835156    -3.34329563    -0.04336610
O     0.12846939    -0.45295046     0.83040871
H    -0.74997721    -0.09783974     0.97726547
H     0.19019652    -0.52312728    -0.12384673
O    -2.04258857    -1.51768189     3.49939132
H    -2.19456498    -1.41287423     2.55850997
H    -1.24270756    -2.02462254     3.64952343
O     2.18221825    -0.52966864    -2.96800776
H     1.86159597     0.33803631    -3.22025258
H     3.10246664    -0.55599803    -3.23594269
O    -0.50578107    -1.22185252    -2.23959136
H     0.42715459    -1.39401174    -2.37862269
H    -0.95081663    -1.25348813    -3.08828514
O     0.03496146     0.32969277     5.28368820
H    -0.55421574    -0.42446395     5.22490009
H     0.81140675     0.02741153     4.80924612
O     0.45028782     1.44440959    -3.74452348
H     1.05781482     1.80438166    -3.09593297
H    -0.25304335     0.95937325    -3.30931913
O    -2.35455521     1.26633695    -1.76975498
H    -3.25918688     0.98400911    -1.91560035
H    -2.22168081     1.29588873    -0.82064520
O    -3.47885747    -1.17177876     0.84271495
Cl    -4.75007326    -0.62006675    -0.14763171
H    -2.95567890    -1.77727221     0.30396800
O     0.11046380     2.28221187     3.43114503
Cl     1.46973574     3.29955657     3.56735897
H    -0.12436486     1.80997619     4.23888017
O     2.29916204    -2.90444908     1.15214214
Cl     1.70438468    -3.82118136    -0.15438211
H     2.63133573    -2.07267072     0.79382451
O    -4.03148231     0.35846435     4.06061867
Cl    -3.35232396     1.92047966     4.05702142
H    -3.29094990    -0.24740316     3.93763748
C     4.83382478    -0.55084908     0.96260413
C     3.89724439    -0.53233305     1.98885789
C     2.83132867     0.34425394     1.91738890
C     2.74666369     1.20532607     0.81817216
C     3.69506923     1.25974271    -0.20283774
C     4.73826040     0.34713875    -0.09650044
H     3.96932249    -1.10305384     2.90532797
H     2.03387672     0.22276599     2.64216923
C    -0.76185533     4.10426771    -0.97947650
C    -0.60448252     4.01580496    -2.36485934
C    -2.00676093     4.51366422    -0.49320322
C    -1.69243878     4.23452875    -3.20043136
H     0.36000325     3.75626736    -2.77078230
C    -3.12230574     4.66283923    -1.30089678
C    -2.94867386     4.46753522    -2.66317092
H    -1.49128121     4.25968736    -4.26355782
H    -4.08049837     4.87858181    -0.84690001
Cl     6.23253338    -1.57368099     1.01396155
Cl    -4.25114405     4.78425073    -3.77936202
N     1.61259280     2.03177246     0.79805926
H     1.11143157     2.17304599     1.66098101
C     1.14503284     2.70862519    -0.31732060
O     1.56788947     2.57549637    -1.44102131
N     0.10646211     3.56632106    -0.01075568
H    -0.25171131     3.58764522     0.93110690
H    -2.11332040     4.66956115     0.57533095
H     3.59353186     1.97620257    -1.00179979
Cl     5.87870915     0.15813773    -1.38840001
