%nproc=8
%mem=4000MB
#opt=(noeigen,calcfc,ts,recalc=5,maxcyc=200) freq B3LYP/SVP em=GD3BJ

ts-4639.gjf

0 2
H  -1.35877378118832  -2.19354511800754  0.27081277609811
O  0.77177197846677  -2.63939057037452  -3.79977821447843
Cl  -0.34460915512869  -6.45206500440650  -0.98204212732941
H  0.76756332732470  -3.37432085204287  -4.44896953816221
O  -1.04952603180392  -0.43334808218214  2.47007704779043
H  -1.34279545593943  -0.38949746690383  3.39949609164727
C  1.49235632651155  -1.27235639955413  3.54358724324759
C  0.34771937168224  -1.87880883825906  3.58989293774044
C  -0.46771143967595  -1.63773545816604  2.30773950089441
C  0.25892095157500  -1.28776809544174  1.11812520783289
C  1.53593854210410  -0.82371817695003  1.24281912639140
C  1.92531653433645  -0.41053719974476  2.50938871517316
H  -0.01761109727037  -2.37446903333695  4.45800302105018
H  -1.12475554594476  -2.61599720780892  2.20997494270818
C  -1.59399515548930  -2.38597808846553  -2.37326815663768
C  -2.99254309821297  -2.71913677270322  -2.15570303157493
C  -0.83371190050634  -3.27973409076788  -1.59611576384093
C  -3.44683517282314  -3.56640796721023  -1.20112108978296
H  -3.83611785447736  -2.25448520659794  -2.60996159275114
C  -1.22509540868996  -4.48416243763631  -0.78966982845034
C  -2.71243770156710  -4.68469848564537  -0.68109258218284
H  -4.51631050923102  -3.35700446387884  -1.01945356771060
H  -0.60285575791443  -4.40197048970152  0.11648211771743
Cl  2.68501503628497  -1.39246302597102  5.04078683315208
Cl  -3.55080577939417  -5.85055083832678  0.17046815355517
N  -0.80357262834847  -1.16529361340049  0.20777931986304
H  -0.66732649235028  -0.77591627605900  -0.75493018805913
C  -0.35655399231548  -1.98340791866181  -4.17171254181169
O  -0.71528491499405  -1.79004516305396  -5.27339806069598
N  -1.30000006039257  -1.47916911679444  -3.29320073240593
H  0.18836584138272  -3.51988455785531  -1.84830592422079
H  2.02026237348644  -0.71494924607264  0.28271437242424
Cl  2.66199885861452  0.95557980861955  2.92877258610758

