%nproc=8
%mem=4000MB
#opt=(noeigen,calcfc,ts,recalc=5,maxcyc=200) freq B3LYP/SVP em=GD3BJ

ts-4679.gjf

0 2
H  -0.12004271547163  -3.54402808347335  -1.06445357683707
O  0.52932756997075  -1.16071310453946  -3.10201996644706
Cl  0.16283166154420  -6.30064785367841  -0.32467624164915
H  0.98605798685790  -0.59772506196589  -3.73970013413751
O  -1.22494236522655  -3.23792417249114  1.14097843014720
H  -1.63101597558582  -2.60961733674451  1.75956767613597
C  0.85847707816897  -1.51190448443741  3.70948483950517
C  0.14082904109261  -2.52107867367394  3.07241536280621
C  0.19463154889144  -2.85623305642653  1.53272648947034
C  0.39647494174791  -1.48344294049735  0.81272741465715
C  0.89389486720120  -0.33669547090952  1.58016974673380
C  1.19977773813280  -0.41128617106606  2.90610454291595
H  -0.56452784485730  -3.09912227819352  3.69523379228171
H  0.79928351089015  -3.79205760262234  1.33017831152826
C  -1.62385808729657  -3.43880648894812  -2.45386030579448
C  -2.64967382596946  -4.32334230217942  -2.89316873399154
C  -0.63868654295735  -4.22090026702404  -1.64752381019673
C  -2.69156417988682  -5.75378825147621  -2.62578868001890
H  -3.48505205835151  -4.16891867906611  -3.57194977447902
C  -1.28193958313705  -5.21527686593056  -0.80515134675760
C  -2.32987133328711  -6.17342698767304  -1.35788596954596
H  -3.38806806932096  -6.31735243038990  -3.21376238865144
H  -1.48577688259712  -4.83104295078560  0.23438369123213
Cl  1.56126400677077  -1.57430016016139  5.16026399890941
Cl  -2.30423320092892  -7.65450924398486  -0.52273412705760
N  0.44869912152341  -1.53367071065710  -0.43770837102537
H  0.86339387411923  -0.64528782779706  -0.72477796891387
C  -0.76470186067776  -1.28842948431253  -3.35051740879937
O  -1.30324232245563  -0.52474793953295  -4.15047025119301
N  -1.42950161246087  -2.19261784104562  -2.53256529424742
H  0.22649286971538  -4.59219762103416  -2.33158649122681
H  0.96082981252467  0.63577031234891  1.07605518508726
Cl  1.93185875244768  1.02635757852358  3.76769989154056

