%nproc=8
%mem=4000MB
#opt=(noeigen,calcfc,ts,recalc=5,maxcyc=200) freq B3LYP/SVP em=GD3BJ

ts-4699.gjf

0 2
H  -0.04245919866148  -3.45472624202968  -1.54890670454384
O  -0.26969002944224  -1.02218841023668  -3.98274189728512
Cl  1.18047079823539  -6.56424062573418  0.10298503768993
H  -0.05868594910985  -0.15070868893854  -4.38504461857301
O  -0.78059046716495  -3.07144114373179  1.22256659776868
H  -1.23147125372575  -2.40097104082553  0.78272797604359
C  1.10744852918952  -1.51918526280888  3.52229395125742
C  0.99564956965260  -2.67141679353613  2.77541029657440
C  0.51611925270858  -2.58801603117960  1.37935673133754
C  0.64024342006826  -1.27669879609562  0.83016407221228
C  1.37546887982918  -0.21430118114568  1.60454515203866
C  1.17619649251261  -0.15803776567404  2.97538677163085
H  1.00498005683970  -3.64476567878504  3.27875517665292
H  1.16866477194837  -3.29701944464564  0.89654433897583
C  -1.50378892450609  -3.72611024272429  -3.17046368451184
C  -2.04291131750450  -4.75647610447500  -3.96109409140279
C  -0.51258319442850  -4.20076432368631  -2.12717800845449
C  -1.84063800272678  -6.02364693313976  -3.47887617378726
H  -2.68940694160959  -4.49277666632825  -4.76373042049106
C  -0.95378523965775  -5.43041212208457  -1.42884050639799
C  -1.53541071977211  -6.46006387883016  -2.09932383932945
H  -2.17010362224680  -6.76472485763601  -4.22304918030909
H  -0.78099588910134  -5.74249744699137  -0.34308524431776
Cl  0.55822345949949  -1.51198997183872  5.19510252380697
Cl  -2.41728729062268  -7.83077393148323  -1.56859203109229
N  0.25167870648901  -0.94142296659569  -0.40564991198592
H  0.68638090398374  -0.09419413840502  -0.77655590521971
C  -1.44147472495472  -1.25406789406455  -3.45567076549961
O  -2.21690112826818  -0.37531365536764  -3.13869217852800
N  -1.72960520791947  -2.54145900852541  -3.45915704657077
H  0.33754042295242  -4.51283167708513  -2.67544938684440
H  1.91505029786302  0.58617009277982  1.12567033545544
Cl  1.51311387144272  1.24136783574931  3.89177846852033

