70
 energy: -143.147066750608 gnorm: 0.104882029387 xtb: 6.6.1 (8d0f1dd)
O    -0.98497738    -2.15110853     1.50056512
H    -1.84856664    -2.54923042     1.62324587
H    -0.85575371    -2.25876490     0.55661065
O    -1.66476860     0.60687100    -4.59034467
H    -1.05467124    -0.13116753    -4.54116010
H    -1.17833325     1.42712110    -4.49080326
O    -0.83785680    -0.16143686     3.67335187
H    -0.33131304    -0.93648520     3.92245449
H    -0.48388512     0.59069612     4.15119953
O     0.85044524     1.09818782     5.40444495
H     1.61817946     0.98346155     4.84162967
H     1.09089577     0.85711388     6.30077377
O     0.86860784    -1.53990588    -2.44746488
H     0.96675320    -2.45225225    -2.16938078
H     0.46946398    -1.63233412    -3.31434394
O    -0.21184628    -4.27531755    -3.06661290
H     0.09080235    -3.71009765    -3.77954225
H    -1.16404219    -4.38562179    -3.08886995
O    -1.46390808    -1.25292561    -0.94559209
H    -1.92635151    -0.41506442    -0.88666730
H    -0.65791553    -1.23479816    -1.46461617
O    -0.95685332    -2.25832387    -4.75817515
H    -1.24619870    -2.40116000    -5.66106787
H    -1.79605092    -2.36981763    -4.30800513
O    -0.15202535     2.31511665    -3.31814094
H    -0.43521375     3.12837367    -2.89652981
H     0.48859751     1.91587514    -2.72691646
O    -2.93680193    -2.24999326    -2.99334106
H    -2.61803013    -2.26696118    -2.08921996
H    -3.24004089    -1.34042535    -2.98493595
O    -2.90298726     0.89252767    -2.37560154
Cl    -4.22193543     1.96971880    -2.34100038
H    -2.52572852     0.99855693    -3.25708895
O     2.02192066     2.64621899     2.98820411
Cl     2.61006032     3.46332627     4.36210079
H     1.08631765     2.51785264     3.18507002
O     1.21367718    -2.19024865     3.31710193
Cl     0.91899943    -3.12219710     4.71202162
H     0.46288500    -2.32183725     2.72584761
O    -0.62097401     2.86724885     4.04220739
Cl    -1.58061517     4.22822187     3.68443354
H    -0.37003689     2.94392489     4.97050660
C     4.99735280    -1.22409358    -0.43711798
C     4.28631952    -1.59221824     0.69850460
C     3.00655819    -1.15850196     0.98796988
C     2.34416008    -0.30595388     0.09842983
C     3.06294623     0.16418710    -1.00030106
C     4.31917413    -0.35663128    -1.28847008
H     4.71583519    -2.21119108     1.47517950
H     2.54103321    -1.45544524     1.92130088
C    -1.66043648     2.50775622     0.65389642
C    -1.30675869     3.71757770     0.05130078
C    -2.91095910     2.39655092     1.26845619
C    -2.23829179     4.74750516     0.08543356
H    -0.27008217     3.90723491    -0.17607105
C    -3.89130950     3.37118013     1.17860446
C    -3.51745501     4.56958936     0.58857847
H    -1.92252100     5.75370763    -0.15783710
H    -4.83313345     3.16857407     1.67126002
Cl     6.62242176    -1.73983718    -0.75075494
Cl    -4.63498451     5.90624887     0.50438175
N     1.01378122     0.03062814     0.39226607
H     0.73026866    -0.47204739     1.21851827
C     0.34285311     1.20407635     0.08617940
O     0.72399082     1.88989951    -0.83230576
N    -0.78213983     1.42638070     0.85639049
H    -0.98226775     0.83849624     1.65023478
H    -3.10103325     1.54636835     1.91536072
H     2.70210549     0.98886363    -1.59331678
Cl     5.14694156     0.29255310    -2.66640701
