%nproc=8
%mem=4000MB
#opt=(noeigen,calcfc,ts,recalc=5,maxcyc=200) freq B3LYP/SVP em=GD3BJ

ts-4407.gjf

0 1
Cl  1.50293835458632  -1.56412094096429  -3.41816237716679
C  -0.86362286503988  -3.54268235782631  0.45425364958052
C  0.24762779018629  -2.66219737629445  0.68456651761863
C  -0.61321771639576  -4.96247189704204  0.11205947717557
C  1.47088295571682  -3.24297850574273  0.78145391529762
H  0.25583603109807  -1.59397961009497  0.60417105454444
C  0.63346687030747  -5.45383735652133  0.03544091967556
C  1.60268151067040  -4.54800644084514  0.35392892067320
H  2.41877559939182  -2.76742199080442  0.91830869654202
H  0.87430470341404  -6.41144263252719  -0.36075368881621
Cl  3.15250664149462  -5.22565395210687  0.69345529012386
N  -2.11255830516660  -3.16929315864736  0.58256736933540
H  -2.75811339287642  -3.84599613174505  0.21910230516818
H  -1.34671187676401  -5.66882561816870  -0.22260301273637

