%nproc=8
%mem=4000MB
#opt=(noeigen,calcfc,ts,recalc=5,maxcyc=200) freq B3LYP/SVP em=GD3BJ

ts-4427.gjf

0 1
Cl  1.10500032972735  -1.59032476907498  -3.07213527591483
C  -0.52582384809452  -3.15649116159766  -0.30532942374584
C  0.66998369638393  -2.41873082243375  -0.36648585910145
C  -0.61688364485212  -4.63006325770035  -0.06967201550569
C  1.82306484629487  -3.09225318333774  -0.21000794466862
H  0.57259461009237  -1.34010805782837  -0.36075382509005
C  0.65331705206674  -5.21012843613027  -0.04284563362317
C  1.83224729757326  -4.46089741446673  -0.09272300037153
H  2.76724512485763  -2.56771608279689  -0.01062174349011
H  0.85086607422739  -6.24825883527514  0.21832693666102
Cl  3.21321063159868  -5.24263434631064  0.68382951902942
N  -1.61338598476673  -2.65902052910924  -0.78610284494063
H  -2.45556214762774  -3.19217120425101  -0.63055951794145
H  -1.59339907927574  -5.12678089253767  -0.08271891295782

