70
 energy: -143.143958497175 gnorm: 0.105647753680 xtb: 6.6.1 (8d0f1dd)
O     0.14562137    -0.15610185     3.06150290
H    -0.63480042    -0.14698894     2.50454975
H     0.41471348    -1.07417410     2.99769495
O    -3.63647011    -1.55939784    -1.64940210
H    -2.80191289    -1.79096299    -1.23802560
H    -4.23801999    -2.30446518    -1.60092025
O     0.62708879    -4.74230578     0.02198574
H     1.24298144    -4.87287949     0.74514918
H     1.06104479    -4.14147588    -0.58631023
O    -0.86124573    -0.24960208    -0.34895001
H    -0.27154417     0.49511843    -0.21863346
H    -0.76043765    -0.65058049    -1.21404683
O    -3.41228555     0.77137151     0.38348184
H    -3.81042342     1.44182689    -0.17447427
H    -2.68325236     0.34695289    -0.07227857
O     0.94257858    -1.40969792    -2.41069578
H     0.53790870    -0.87877808    -3.09895764
H     0.68353476    -2.31813835    -2.57492653
O    -1.42475818    -3.05321536    -0.49212107
H    -1.56930510    -3.84956558     0.02195088
H    -0.72246690    -2.56902346    -0.05430405
O     2.18546129     1.05158124     4.10115889
H     2.36697930     0.45124284     4.82640588
H     1.39272804     0.68331936     3.70708569
O    -0.87549826     0.68312104    -3.53975341
H    -1.03018596     0.81924187    -2.60333394
H    -1.75919691     0.51069207    -3.86942410
O    -0.01079760    -4.05111956    -2.61244545
H     0.11943482    -4.99644362    -2.70593487
H    -0.71059805    -3.97067121    -1.96194896
O    -3.36904954     0.94159585    -2.42627394
Cl    -4.06319498     1.09132142    -3.97446856
H    -3.59692249     0.06228579    -2.10150611
O     1.28667366     3.44920772     4.17259836
Cl     0.03009019     4.09194821     5.12603807
H     1.59150069     2.69394447     4.68955581
O     1.73896887    -1.31752575     0.79960518
Cl     2.82508372    -2.62794348     0.86536009
H     1.69958771    -1.06336115    -0.13014511
O    -3.73895990     0.07869692     2.86257674
Cl    -2.49904932     1.12752448     3.37613620
H    -3.82716050     0.33750637     1.93746788
C     5.28226287    -0.38835937     0.28607409
C     5.25650375     0.21365351     1.53812817
C     4.33113009     1.17121321     1.90752213
C     3.37445127     1.51352660     0.94602435
C     3.41970360     0.99631856    -0.34832626
C     4.35157127     0.01522792    -0.66689374
H     5.96556300    -0.05457408     2.31021872
H     4.20245858     1.45584669     2.94599356
C    -0.81861691     3.88181458     0.82545061
C    -1.09574837     3.81573337    -0.54228798
C    -1.78359206     4.19348215     1.78750225
C    -2.34225567     4.23359075    -0.99093512
H    -0.35972674     3.41136956    -1.21840045
C    -3.07823792     4.42299266     1.35129207
C    -3.26200042     4.58207220    -0.01436071
H    -2.66157188     4.11914631    -2.01868743
H    -3.85126196     4.59441966     2.08874556
Cl     6.33377563    -1.72137337    -0.06407308
Cl    -4.85301880     4.99935928    -0.59500850
N     2.37491829     2.40306062     1.36934218
H     2.42894278     2.55960208     2.36349048
C     1.23305621     2.68303595     0.63546280
O     0.87036772     2.05415193    -0.33004029
N     0.52294845     3.71484717     1.21801405
H     0.78120636     3.99962846     2.14970632
H    -1.51725408     4.20645592     2.83931962
H     2.67251103     1.28517080    -1.06959776
Cl     4.34495075    -0.81880357    -2.18666242
