%nproc=8
%mem=4000MB
#opt=(noeigen,calcfc,ts,recalc=5,maxcyc=200) freq B3LYP/SVP em=GD3BJ

ts-2303.gjf

0 2
Cl  1.68985068441434  -1.84581195352795  0.20728786991902
C  -1.60042982835727  -2.27853657905335  -1.70022004466295
C  -2.21472695183043  -2.78260381514994  -0.51157368731218
C  -1.75558698159209  -2.49495795458795  0.78313922743840
C  -0.72049317320066  -1.48811493434043  1.03465497906238
C  0.02601992379130  -1.04272225036350  -0.19251813491526
C  -0.61460212727639  -1.40491706145763  -1.49670253306296
H  -2.98697033596044  -3.49157624195519  -0.53712390415058
H  -2.36755314755416  -2.71690686477283  1.62718997006861
C  -2.82470455670264  0.42204878596269  2.69106853456770
C  -2.58994201483698  0.86745993778216  1.34848324393632
C  -4.09907362899934  0.68805047666228  3.26120619661862
C  -3.09499166499040  2.08631578611659  0.83577261301096
H  -1.54499249821181  0.77162986680620  0.93042719752469
C  -4.76309764777086  1.66899500167733  2.59642155245903
C  -4.26638744883445  2.48821794653957  1.49638592038147
H  -2.52685381064797  2.48043014849216  -0.01102669869931
H  -5.75175275872638  2.00696840362183  2.98353039383147
Cl  -2.57198046990637  -2.67454859414503  -2.95174838148265
Cl  -5.00965735019631  4.19331793795104  1.53502572639743
N  -0.36191222700264  -1.04091188857810  2.23482876521908
C  -0.86683744831900  -0.92081738213585  3.49584144899424
O  -0.34006196116432  -1.22240282957392  4.55106114321885
N  -2.15756864216017  -0.57957739171919  3.33696013678010
H  -4.34729186576370  -0.03405342551906  3.95306246622817
H  0.32972446073406  0.00036875851934  -0.23268910987563
Cl  -0.12539940508634  -0.50815806614829  -2.93408812760121

