%nproc=8
%mem=4000MB
#opt=(noeigen,calcfc,ts,recalc=5,maxcyc=200) freq B3LYP/SVP em=GD3BJ

ts-2516.gjf

0 2
O  -6.65363320222869  1.27253001650187  -4.18973260954969
C  -0.20578890909934  0.52754860464495  3.05028794670357
C  -1.32432295530038  0.02436346530613  2.44140526617893
C  -1.55696177728930  -0.45185802094364  1.12657893343817
C  -0.47302464580111  -0.27398884507055  0.15054278716429
C  0.63890884178807  0.46232119200394  0.71456297913140
C  0.71059056332022  0.91039717528023  2.03156245804723
H  -2.20152122020141  -0.07372924647160  3.13070323346613
H  -2.50337184704352  -0.89464009118296  0.84296974155598
C  -3.49360513293590  -0.55810732424982  -2.48432544234201
C  -4.53219485337385  -1.30006635076659  -2.99540878485483
C  -3.77772845209704  0.77162330137126  -2.23892359496730
C  -5.77592662566494  -0.74176020895152  -3.10627094474461
H  -4.46593741740590  -2.27280632731752  -3.39138374808160
C  -4.92109197367347  1.36816853843041  -2.49723219842683
C  -5.95446814294363  0.81619829244521  -3.28230631233421
H  -6.63332266503139  -1.40830232200974  -3.44656394696166
H  -4.89993290209344  2.44365205502364  -2.40481989390827
Cl  0.06024641973213  0.59567383216743  4.74603777495575
N  -0.63008483485093  -0.57055361604177  -1.14233789221649
C  -1.25639112944505  -1.59164842938086  -1.77684826287932
O  -0.73260231563899  -2.68760839918345  -1.93654522415667
N  -2.50384952772052  -1.27579439460561  -1.96112778436249
H  -3.02882073342223  1.31826139345271  -1.74077404622205
H  1.45238180823301  0.97171123487353  0.18898137455874
Cl  2.20059393231848  1.70591046539964  2.67116284099871

