%nproc=8
%mem=4000MB
#opt=(noeigen,calcfc,ts,recalc=5,maxcyc=200) freq B3LYP/SVP em=GD3BJ

ts-2526.gjf

0 2
O  -6.72400230528732  1.62701512463865  -3.71096921835809
C  -0.16862652202969  0.75267285720282  2.85149297345564
C  -1.37777847119135  0.46574486522016  2.34344551183577
C  -1.64585883377844  0.19232132461438  1.04966558139350
C  -0.51205657644261  -0.05729835229961  0.28550882103357
C  0.61404753548384  0.58146001048434  0.66777681257733
C  0.81591626702152  1.15753292129298  1.95023820388014
H  -2.24139403416753  0.32885155401115  2.91202568644339
H  -2.67195881799384  -0.11819407277930  0.90472656330213
C  -3.52423100647908  -0.60144397840499  -2.37378749673533
C  -4.71134339972964  -1.25104704493659  -2.53533430537866
C  -3.70433525897035  0.76032154891083  -2.14552668583071
C  -5.74658821848815  -0.50004305840386  -3.09151082033046
H  -4.80827481367206  -2.31589681094123  -2.73702007988133
C  -4.82446766940463  1.52509925114420  -2.38766092128395
C  -5.92926899514915  0.90991105225776  -3.09072834882484
H  -6.70683490810304  -0.92350330271250  -3.19937834067985
H  -4.89555785668751  2.61987983637772  -2.35450930642945
Cl  -0.10746110293158  0.83656647207187  4.56185508751961
N  -0.56363875395427  -0.74175745507701  -0.79905429072401
C  -1.23804397892717  -1.27844728569389  -1.81921947985442
O  -0.82920010689839  -2.43152160667510  -2.04205588326142
N  -2.30053159502236  -1.02809092188792  -2.67069729805796
H  -2.68733742251242  1.14274935931246  -1.89517825925892
H  1.36683946108713  0.66304562109680  -0.11150718838335
Cl  2.34572905451677  1.71769839667711  2.32075265770314

