%nproc=8
%mem=4000MB
#opt=(noeigen,calcfc,ts,recalc=5,maxcyc=200) freq B3LYP/SVP em=GD3BJ

ts-2546.gjf

0 2
O  -6.93930674806910  1.86883297893846  -2.30516104611558
C  -0.34822871645902  1.39567853196941  2.50833644048007
C  -1.64632629388198  0.78530105496765  2.13811221923565
C  -1.84506996408932  0.41485983703994  0.83702628785970
C  -0.78898256279860  0.22589382108002  -0.03697915560904
C  0.45603552150936  0.19753233198328  0.59475679874695
C  0.63886300748739  0.89465429581859  1.74689857895714
H  -2.40132269086816  0.91373115024614  2.93473355894122
H  -2.79590071665735  0.11827239207951  0.40903998381523
C  -3.40954629649543  -0.09351860243894  -2.19137283424134
C  -4.47184462597535  -0.85376722466441  -2.69082137988034
C  -3.35700878986367  1.33308594905723  -1.99089304180817
C  -5.57163990480643  -0.10844450662698  -2.92931755406312
H  -4.51922387684351  -1.92627351287906  -2.64078143591987
C  -4.56769762709007  1.96034681892816  -2.02812935360315
C  -5.86343890316818  1.31020613499970  -2.36574033533289
H  -6.41908422442225  -0.65104063188472  -3.39355217971748
H  -4.57891086330939  3.03488290082300  -1.87916302566782
Cl  0.05906019216620  1.83565208245800  4.03192596933147
N  -1.01720569749784  -0.12593864070090  -1.32485777531592
C  -1.12763756572385  -1.45908815481539  -1.78151241387854
O  -0.48787855192916  -2.40878231938316  -2.06835150652807
N  -2.29062395029117  -0.85290865866234  -1.75002554864554
H  -2.61246574617225  1.95580574966053  -1.53672092457829
H  1.28968150636141  -0.38071255138170  0.22140537405943
Cl  2.27182016618044  1.31824089744751  2.13083638503583

