%nproc=8
%mem=4000MB
#opt=(noeigen,calcfc,ts,recalc=5,maxcyc=200) freq B3LYP/SVP em=GD3BJ

ts-5408.gjf

0 1
O  -3.01826175000677  -0.22335521601181  -2.45897858904496
Cl  -0.10080013413703  -2.65161594088492  -0.26906239997839
H  -4.00805448793961  -0.29624367613889  -2.55738972446433
Cl  -5.08500217724646  -1.27426078699826  -0.68381564763559
Cl  -2.87047124256724  2.73197346933196  -0.73317763678816
C  -3.72815544640717  -0.34610781486728  -0.19115238204858
C  -2.62232241632878  -0.17045864518690  -1.13347713319999
C  -1.91692709434896  1.14009816993963  -0.68906340741268
C  -1.46942178080227  1.12899873171384  0.75190353686374
C  -2.49231516783364  0.76864575308075  1.62807136733434
C  -3.46492628199136  -0.07604045488882  1.11081885052247
H  -1.91885550249971  -1.08629868258549  -1.01491649627190
H  -1.06245116787508  1.38796942284841  -1.36453649053061
C  2.52615813919679  1.02863021868264  1.63022925674807
C  3.10668086602687  1.69144548666547  2.83711203376566
C  3.30077925629586  1.19228714092891  0.53957478001520
C  4.17016530601086  2.51962599843258  2.76908197751919
H  2.59553852634474  1.67694727460583  3.74890297660458
C  4.38404011661247  2.05138010161950  0.43447696375820
C  4.74571070709441  2.90304464594940  1.57202421335172
H  4.43775022529920  3.17900419426133  3.57147602671307
Cl  5.16200317472536  2.02722986935757  -1.14732977925525
Cl  5.93747504886612  4.18469150555117  1.83249524319331
N  -0.22810648069813  1.46270411610695  1.01486152523015
C  0.05560210614640  0.73597935090244  2.23890330133226
O  -0.52603380590343  0.35480283465799  3.20918883234763
N  1.35500829968785  0.34760485041899  1.89709152913773
H  -2.24350447554058  0.83227131435105  2.70502846757458
Cl  -4.58053818719512  -0.60137556596174  2.35417939519685

