%nproc=8
%mem=4000MB
#opt=(noeigen,calcfc,ts,recalc=5,maxcyc=200) freq B3LYP/SVP em=GD3BJ

ts-5428.gjf

0 1
O  -2.85045205776841  -0.46457834836340  -2.30459700861955
Cl  -0.72696109445015  -2.78927797693801  -0.39478202867476
H  -3.31889604661338  0.34428584421405  -2.56192876328166
Cl  -5.06026003397699  -1.66374931541950  -0.43424118897482
Cl  -2.85145139678242  2.46973542230047  -0.92724156464845
C  -4.02635623218002  -0.39971272706425  -0.13287201828237
C  -2.85508728913352  -0.24245889488734  -0.92025894598080
C  -1.94251493262204  1.07367185548245  -0.57119853161537
C  -1.56505389287693  0.96496138936001  0.81418235522759
C  -2.74095828804897  0.72064186707200  1.63292948113727
C  -3.89734988237345  0.13732145202989  1.12086620270904
H  -2.13512119915570  -1.15386503458511  -0.67081967904135
H  -1.06415023288781  1.06699770960579  -1.24208106519721
C  2.43372343476895  1.67824813318136  2.06991003481147
C  3.27260434299772  2.53986635842835  2.87300720450814
C  2.70161697263186  1.97451788689391  0.71854113747366
C  4.45277680393640  3.12926600020720  2.55390177723358
H  2.70756732774411  2.68495729550743  3.80009666072994
C  4.03365268553886  2.35077093877845  0.49062035668885
C  4.96951716057539  3.00719161578072  1.33294681445696
H  4.99055440239931  3.61566098093551  3.38711759001341
Cl  4.53420103773175  2.56599945267332  -1.22370736264102
Cl  6.66403691905930  2.82380579146920  0.82186135799414
N  -0.26484526521535  1.15480752732316  1.02375099696538
C  0.37531140268285  0.38303384383353  2.02993219344849
O  -0.24576579317963  -0.64146264967079  2.41517403718570
N  1.43185625616008  1.03113698824664  2.60496885319189
H  -2.66202653251793  0.56834404252513  2.68932698605388
Cl  -5.08575445383058  -0.25075912820112  2.36547055260666

