%nproc=8
%mem=4000MB
#opt=(noeigen,calcfc,ts,recalc=5,maxcyc=200) freq B3LYP/SVP em=GD3BJ

ts-5438.gjf

0 1
O  -3.08247775838809  -0.86551714269428  -2.29050240412598
Cl  -0.94978409662848  -2.50578009051431  -0.48041062640282
H  -2.22512185086829  -1.27681197652340  -2.45577244919247
Cl  -5.02155906833077  -1.87559063703737  -0.26696162843142
Cl  -3.13433487859261  2.31032936177633  -0.94792259528362
C  -3.77231806855910  -0.69678676379674  0.05172957531825
C  -2.85974678760041  -0.33500286393814  -0.95710159157550
C  -2.03625629416568  0.82873672181869  -0.56001224425554
C  -1.53430995549626  0.82789341102095  1.06851407155349
C  -2.76866561996504  0.84669472466738  1.82541651264580
C  -3.78853355468047  0.01797632886283  1.34025342850475
H  -1.76457902499429  -1.41263364018872  -0.50753200596122
H  -1.24882197425984  1.00820896069547  -1.26970628173769
C  2.60252574256154  2.02015250098408  2.30261614270304
C  3.53291301051166  2.91178292897958  3.00707073474134
C  2.99854042119245  1.67723184794294  0.90621313294662
C  4.82711264637353  2.86333643283355  2.53939478438881
H  3.17437019168875  3.26505801158839  3.91307948237468
C  4.22003535774556  2.04514621761039  0.34876379620824
C  5.20584910322457  2.50191786039699  1.23450967421138
H  5.46992092259746  3.46148166830649  3.14541249777645
Cl  4.45962385751748  2.12535863792403  -1.48286449447796
Cl  6.73361357280101  2.34211860351872  0.52144322013573
N  -0.34619193469790  0.88234722856105  1.57246146933225
C  0.80767619502282  0.45247669350514  2.13251624315528
O  1.01868892360242  -0.70909309800251  2.38697886846839
N  1.43331903146181  1.52464694439981  2.70617247846371
H  -2.82711414970611  1.20405859385053  2.87863854202989
Cl  -5.27773374648568  -0.23940513402385  2.17351476572037

