%nproc=8
%mem=4000MB
#opt=(noeigen,calcfc,ts,recalc=5,maxcyc=200) freq B3LYP/SVP em=GD3BJ

ts-5458.gjf

0 1
O  -2.57922983135440  -0.91149516033246  -1.98986003694380
Cl  -0.39599529705107  -2.64255637239734  -0.48573333937139
H  -2.33085864268512  -0.22322384214368  -2.57133936624954
Cl  -4.84427027274395  -2.31517280703346  -0.55917540734976
Cl  -2.60976473743950  2.19491244948297  -0.54855490306662
C  -3.70189401275385  -1.10869143080220  0.10678431279094
C  -2.67845903811322  -0.57955508962328  -0.70300929189020
C  -1.80971955707856  0.53278556743687  -0.21290986532589
C  -1.55241035634114  0.46166637012514  1.34818099767229
C  -2.74250631790492  -0.04549353526905  2.01531779030951
C  -3.78373971215562  -0.68779929993365  1.49726690904435
H  -1.00477506940375  -2.96805064483206  -1.66980026200018
H  -0.84446823108098  0.62824377076491  -0.66088954073662
C  2.75570233906007  2.28200829977041  1.58996556317397
C  3.89386457573193  2.34457292224107  2.63064019118686
C  3.23431501707579  2.30048564844915  0.28094159199955
C  5.18190556834000  2.13679835333493  2.25832928351227
H  3.65217936119078  2.48369504542663  3.66681372741620
C  4.48825199775089  1.95870209878765  -0.05277538375173
C  5.39944636538132  1.76989548060348  0.94839148146880
H  5.88606328399182  1.92079388063877  3.08901733725250
Cl  4.52767296747195  1.04241792664004  -1.52515967717718
Cl  6.96464413386778  1.74516825359937  0.27315648805372
N  -0.60887516623015  1.07228596820476  1.91438991457713
C  0.78198848721265  1.10784419453519  1.60467905964940
O  1.35514401492782  0.02622570557789  1.65853683416967
N  1.47873679553256  2.16253454209937  1.97236563988759
H  -2.97842775422435  0.27317690944739  3.01622234076373
Cl  -5.13075537851801  -0.75622615969271  2.53621399778111

