70
 energy: -143.137799957217 gnorm: 0.111347410894 xtb: 6.6.1 (8d0f1dd)
O    -1.34268532    -0.92163999     3.21148163
H    -1.95311421    -1.65706018     3.28810891
H    -1.60416216    -0.61333725     2.34204620
O    -1.53655386     0.67395028    -2.39851579
H    -1.09887902     0.70221125    -1.54588407
H    -2.47115028     0.46105738    -2.37518729
O     1.31878620    -1.04717283     4.15627074
H     1.57916993    -1.54968307     3.38230538
H     0.36693377    -1.05794713     4.04138289
O    -2.26448427    -0.89440249     0.63217610
H    -2.86337785    -0.47006828     0.01524342
H    -1.42110377    -0.97612809     0.18343485
O     1.44444691    -0.97586214    -2.93362016
H     1.41896149    -0.02684893    -3.06802111
H     2.01101884    -1.30707205    -3.63264402
O     0.02319444    -1.15906210    -0.69300424
H     0.50029972    -0.34547838    -0.52040622
H     0.21056936    -1.30925646    -1.62126700
O    -2.91483058    -2.69291484    -4.91866631
H    -2.27256232    -1.98980233    -4.80703426
H    -2.45669011    -3.44666615    -5.29457170
O    -4.13376730     0.05469201    -2.75732775
H    -3.99101767    -0.89072588    -2.82906156
H    -4.03698220     0.39486337    -3.64853626
O     1.07791323     1.68282297    -2.96802002
H     0.55609252     1.86454035    -2.18442539
H     0.54587936     1.96915480    -3.71252782
O    -4.37943202     0.51373265    -0.17710238
H    -4.58447706     0.88220024    -1.03822171
H    -5.17047696     0.06113845     0.12079810
O    -1.93288799     0.03458744    -4.93626576
Cl    -2.65955702     1.16157766    -5.98650735
H    -1.80353752     0.38369038    -4.04633205
O     1.09195369     4.21360336     2.81588448
Cl     1.51002212     5.53415324     1.82465723
H     1.60925982     4.28780905     3.62673279
O     1.57684371    -2.28228880     1.31679109
Cl     1.17614631    -3.93114930     1.46465748
H     0.87888223    -1.89135569     0.77771114
O     1.68953364     1.36181592     5.38893425
Cl     0.27129251     1.47178864     6.32576879
H     1.61919124     0.55487419     4.86502103
C     5.27597473    -0.51316394     0.50601394
C     5.07105188    -0.10073162     1.81697882
C     3.86424240     0.45282787     2.20021740
C     2.88422960     0.74784529     1.24657667
C     3.12641521     0.30853784    -0.05467302
C     4.24596710    -0.42700972    -0.42612299
H     5.78062650    -0.33130996     2.60067039
H     3.89150569     0.80631685     3.22505779
C    -1.70373314     2.73567558     1.54443710
C    -2.29831581     2.86373388     0.28668115
C    -2.41827041     3.14824100     2.67274710
C    -3.50937149     3.52119573     0.11130265
H    -1.69608457     2.49315534    -0.52717087
C    -3.65296997     3.76697874     2.56438221
C    -4.11290586     3.97715741     1.27272961
H    -3.94600518     3.72749913    -0.85726595
H    -4.20227600     4.09760038     3.43601475
Cl     6.80133934    -1.10930092    -0.06239805
Cl    -5.66039669     4.72549401     0.97627657
N     1.61416890     1.20674343     1.62853673
H     1.67986051     1.51635939     2.58539479
C     0.47480775     1.58734663     0.93729750
O     0.32943337     1.44861632    -0.25385932
N    -0.46788440     2.11189994     1.80010041
H    -0.24551382     2.18442478     2.78047766
H    -1.93781689     3.05331674     3.64103314
H     2.48478790     0.66125091    -0.84579434
Cl     4.44246443    -1.13928832    -1.99436961
