70
 energy: -143.134223151421 gnorm: 0.113975975481 xtb: 6.6.1 (8d0f1dd)
O    -1.43037011    -2.25083690     1.74651359
H    -2.12588668    -2.18513811     2.40323148
H    -1.72527445    -1.90693180     0.90146957
O    -0.27487592     1.08498556    -3.60378894
H     0.03347976     0.33866928    -4.12076823
H    -0.24896667     1.81222430    -4.22812106
O    -1.87628706     0.23415060     3.66300320
H    -2.21272827     1.11528200     3.83549491
H    -1.04430987     0.15642459     4.13322760
O     0.81982330     0.61061495     4.61125666
H     1.20395321     0.81055822     3.75580013
H     1.09911427     1.28432395     5.23371244
O     0.15443187    -2.07605638    -1.81102595
H     0.48593950    -2.97021102    -1.91067215
H    -0.33428665    -1.89848981    -2.61660799
O     0.64436394    -4.59630176    -3.24511971
H     0.45472741    -3.92394158    -3.90185997
H     1.60235956    -4.56594911    -3.27086000
O    -2.24390605    -1.25692852    -0.72053550
H    -2.33564350    -0.35803339    -1.04133019
H    -1.32922156    -1.36431336    -0.98729265
O    -0.48931546    -2.28894396    -5.25323613
H    -0.65253153    -1.88089770    -6.10540803
H    -1.23704273    -2.27981745    -4.65310519
O    -0.69563340     3.45927411    -2.66571254
H    -1.08080803     3.81155974    -1.86142780
H     0.04818564     2.95562240    -2.33044249
O    -2.62361493    -1.98177911    -3.47657151
H    -2.79980271    -1.05314933    -3.31550342
H    -2.88301424    -2.50978672    -2.71943330
O    -2.67119806     1.02647444    -2.13083511
Cl    -3.95854807     1.81306061    -2.92151480
H    -1.82071376     1.28168001    -2.50784040
O     2.15529063     2.79794505     3.13960623
Cl     2.79725514     4.13885540     3.97087374
H     2.84987817     2.39268806     2.60678166
O     0.72706379    -1.90723574     3.23427697
Cl     0.54422371    -2.32234993     4.87604843
H    -0.02066170    -2.23359973     2.71951560
O    -0.89232337     2.76455252     3.72223704
Cl    -1.33694661     4.34626471     4.17130000
H     0.07111779     2.73719726     3.68197667
C     4.91444135    -1.38658763    -0.72484578
C     4.38840580    -1.88980582     0.45869998
C     3.13506249    -1.46588680     0.85758859
C     2.45987785    -0.48406388     0.12475825
C     2.94576572    -0.07204644    -1.11582631
C     4.21363141    -0.47955769    -1.51438952
H     4.88074435    -2.66271332     1.03407085
H     2.82012104    -1.92938755     1.78601436
C    -1.64032519     2.15455331     0.76090411
C    -1.21803445     3.45999410     0.49751781
C    -2.95169862     1.88927800     1.16560878
C    -2.10047532     4.53057862     0.56691834
H    -0.16157130     3.56431448     0.30945167
C    -3.84328989     2.94941449     1.15018322
C    -3.42592715     4.23683052     0.84612594
H    -1.81780262     5.57508629     0.54606031
H    -4.85120983     2.73236850     1.47848109
Cl     6.60109484    -1.62033601    -1.05006902
Cl    -4.57566469     5.54776476     0.79949007
N     1.19082716    -0.19017743     0.64694220
H     0.91908449    -0.76294566     1.43042621
C     0.47165650     0.93459500     0.27479341
O     0.81946236     1.79664174    -0.49666029
N    -0.78385223     1.04019660     0.84118508
H    -0.91905833     0.49953445     1.68097779
H    -3.27183366     0.88857892     1.43678944
H     2.34641712     0.60207506    -1.70600120
Cl     4.86536128     0.01503630    -3.04277893
