70
 energy: -143.131733577044 gnorm: 0.111380067637 xtb: 6.6.1 (8d0f1dd)
O     1.68925758    -2.66699493    -0.05539066
H     2.54991434    -3.04864426     0.12613553
H     1.40537669    -3.01335778    -0.90320144
O    -2.29355731     1.35696137    -2.26074277
H    -1.68808859     0.72689493    -1.86607492
H    -1.75170161     1.91643805    -2.81995320
O    -1.16456183     0.50808659     3.14517419
H    -2.10817237     0.39567478     3.27285090
H    -0.90700457    -0.32449798     2.74541731
O    -4.09071965    -0.00946626     3.19689247
H    -4.62176115     0.75538255     3.42567231
H    -3.89245944     0.12960993     2.26915912
O     1.17658891    -2.03428698    -3.03552464
H     1.30782555    -2.69471258    -3.71813299
H     1.33005956    -1.22048049    -3.51874701
O    -2.56008786    -2.65041873    -2.00796051
H    -3.37796063    -2.19889590    -2.22371323
H    -2.53275165    -3.36355140    -2.64829947
O    -0.71875693    -0.75899125    -1.34948075
H     0.17024997    -1.05447953    -1.55366410
H    -1.33963540    -1.38505761    -1.72616289
O    -5.20812802    -2.41787769    -0.91872450
H    -5.57471751    -1.53554181    -0.99893495
H    -4.75101071    -2.46276185    -0.07707987
O     1.20471467     1.07096484    -4.09887541
H     2.08607015     1.29689080    -3.79637159
H     0.57800428     0.94203098    -3.38476900
O    -2.97599863    -1.34918641     0.70713929
H    -2.73801862    -1.00643595    -0.15612542
H    -2.48474489    -2.16207103     0.83838962
O    -4.93802390     0.33287957    -1.64963055
Cl    -5.85738731     1.56012350    -2.39111925
H    -4.00149697     0.55251248    -1.72219158
O     2.17728493     0.75676888     4.13997195
Cl     3.61754479     1.53581048     3.67102592
H     1.72982088     1.31840528     4.78412068
O    -0.18164671    -1.71629680     1.71529451
Cl     0.66825754    -2.36465143     3.04136496
H     0.37779432    -1.60256011     0.93768546
O    -0.26779412     2.77888523     3.98131826
Cl     0.76664308     3.19285156     5.26962428
H    -0.38761817     1.82367211     3.91968898
C     5.57481922    -0.36187305     0.25476032
C     4.87660075    -0.92936673     1.31361080
C     3.52992173    -0.62670386     1.38098811
C     2.88370795     0.34863257     0.61416516
C     3.60866067     0.82165627    -0.47926411
C     4.95681673     0.51774066    -0.62930408
H     5.41453142    -1.46004774     2.08810622
H     2.99330804    -1.03000918     2.23268410
C    -1.31569505     2.69888336     0.07790192
C    -1.09293292     3.66312599    -0.90824748
C    -2.61602159     2.58443550     0.57781164
C    -2.16813009     4.23296099    -1.57825394
H    -0.06853214     3.77492261    -1.22521842
C    -3.69034620     3.20546665    -0.03798804
C    -3.46552201     4.01381177    -1.14257609
H    -1.92270553     4.80505088    -2.46358729
H    -4.72346637     3.08135667     0.25874497
Cl     7.27010466    -0.64990064     0.03508817
Cl    -4.78984422     4.96506690    -1.76217617
N     1.59708439     0.76261049     0.99199719
H     1.39007152     0.53419456     1.95154216
C     0.86379414     1.63765208     0.20624799
O     1.15167020     2.02303424    -0.90183245
N    -0.32299803     2.01442048     0.80443135
H    -0.62616389     1.42810636     1.56612305
H    -2.89008180     1.92356369     1.39363239
H     3.06559613     1.46813655    -1.14942012
Cl     5.87558733     1.39850281    -1.80636306
