%nproc=8
%mem=4000MB
#opt=(noeigen,calcfc,ts,recalc=5,maxcyc=200) freq B3LYP/SVP em=GD3BJ

ts-5842.gjf

0 1
O  1.42904293808337  -3.47599348704556  0.31681807996387
Cl  -1.34101111421657  0.87598012371628  -0.80968630022892
O  -3.20966764790458  -1.90832234154054  0.46342661634042
H  -4.15993297776059  -2.01148277947900  0.57537482948274
C  -1.89317280935417  -3.79226318949970  0.80725829214821
C  -2.41808002953006  -2.44543854167152  1.49230821282277
C  -1.15045502310625  -1.56252066558298  1.79814491432237
C  0.06218441633669  -2.00663539054534  1.38393114664836
C  0.46193204245905  -3.45452988618760  1.34225842540826
C  -0.67521353069980  -4.23286389733075  0.85532383649871
H  -2.90530382624799  -2.73457073865382  2.54406378643847
H  -1.38137129305025  -0.53870293603751  2.04888684537718
Cl  -3.24926972267422  -4.64429517788571  0.27269434065546
N  1.06024862926993  -1.26507373939565  0.85038187580285
C  1.91199291792709  -2.17827944460594  0.22601170225456
O  2.91731722037968  -1.98783423350154  -0.38486047459123
H  0.97058176925790  -3.78344417372349  2.31843212476463
Cl  0.06147446922708  -5.81641813388852  0.35643146317688

