%nproc=8
%mem=4000MB
#opt=(noeigen,calcfc,ts,recalc=5,maxcyc=200) freq B3LYP/SVP em=GD3BJ

ts-5852.gjf

0 1
O  1.49208298205037  -3.19139558837688  0.47941229267876
Cl  -1.55822001458420  0.49374930972184  -0.79716552343110
O  -3.24180515485788  -1.87826498861772  0.41389768236902
H  -2.76489434547180  -1.03810394265217  0.24770657889185
C  -2.12093945186054  -3.89218335693405  0.98851538915622
C  -2.55587612385956  -2.50757640581706  1.51015657006912
C  -1.44423024381923  -1.62067098633769  1.59080415750833
C  -0.16862978661812  -1.82207474133146  1.22893172390105
C  0.37675526398244  -3.20274703041256  1.37744384865548
C  -0.78897333665937  -4.21995515550880  1.08184050982184
H  -3.52345514566349  -2.79667261002650  2.09765246881861
H  -1.77843355456637  -0.60686527790901  1.76640757345453
Cl  -3.21731929059290  -5.00868554543221  0.05898906665225
N  0.89597241427569  -1.09005111291345  0.82344917768001
C  1.81634410782306  -1.85205751873581  0.27199240451915
O  2.79957835275875  -1.62572209689558  -0.38734835998763
H  0.84976941721170  -3.35279082609505  2.37646603942456
Cl  -0.17740763319949  -5.94892740370046  0.81827862225228

