%nproc=8
%mem=4000MB
#opt=(noeigen,calcfc,ts,recalc=5,maxcyc=200) freq B3LYP/SVP em=GD3BJ

ts-5862.gjf

0 1
O  1.50331439904611  -3.08198371313325  0.67377631580586
Cl  -1.96451582826008  -0.10690539379615  -0.95652696214569
O  -3.66512033840257  -2.16473819187124  0.11908234703886
H  -4.44071882449224  -1.89587023728861  0.62698192871677
C  -1.87232209062056  -3.71175537181073  0.40720418986804
C  -2.71718601875312  -2.54002020493136  1.02782488412581
C  -1.70672254401513  -1.46771380258737  1.29810013771569
C  -0.34133539232716  -1.77618320583199  1.36037012665806
C  0.35666253543507  -3.20427183970002  1.46874352472700
C  -0.59561543549797  -4.10972137678095  0.83095391896587
H  -3.29987139933513  -2.77219228870042  2.02566600186776
H  -1.87965970700873  -0.41618450398777  1.47723763808531
Cl  -3.02271891687786  -5.02342922645370  0.24611680633993
N  0.55759512726326  -0.98413334772752  0.84171166413371
C  1.60056509572364  -1.76293842028657  0.33746752502517
O  2.52177618700639  -1.25495514632053  -0.28126113882773
H  0.64272818165458  -3.53310387781980  2.43961530662548
Cl  -0.47025773919129  -5.87314518621646  1.06499208428365

