%nproc=8
%mem=4000MB
#opt=(noeigen,calcfc,ts,recalc=5,maxcyc=200) freq B3LYP/SVP em=GD3BJ

ts-5872.gjf

0 1
O  1.38043450026768  -2.83152997174511  0.77099697453194
Cl  -2.30801660990610  -0.65118918674049  -1.25291785964894
O  -3.95046675223100  -2.45861918772490  -0.00591609893282
H  -3.32300168263516  -2.26106421524320  -0.78029128623056
C  -2.17146996952360  -3.87570651333533  0.78882456376620
C  -2.90736789883647  -2.55209426399502  0.99436586962761
C  -1.96524194430245  -1.19528964492980  0.80112931743387
C  -0.52667599203348  -1.40323825375154  0.98433772893346
C  0.04998774023181  -2.90274542267583  1.34434499256743
C  -0.87916323122252  -4.06230736519847  0.90943062833830
H  -3.37585355120105  -2.50289693243417  1.95399690438912
H  -2.39977208355959  -0.27576735665078  1.17542391415660
Cl  -3.29699759427881  -5.20594225704185  0.05894776270244
N  0.53129613758507  -0.66965497375067  0.78256289385922
C  1.56362525734036  -1.48528780473249  0.43265888207316
O  2.49392861702166  -1.06579680899108  -0.11889259275264
H  0.08906564754768  -2.83755628026264  2.40793957017398
Cl  -0.27905785482450  -5.75419637399014  1.12991567113871

