70
 energy: -143.137799135882 gnorm: 0.104293635336 xtb: 6.6.1 (8d0f1dd)
O    -3.91381391     0.37898072     2.37495096
H    -4.64202338     0.56315384     2.97087817
H    -4.07641437    -0.47899769     1.97900549
O    -4.41187878     0.23440086    -1.62706200
H    -5.13570310     0.85298466    -1.51405207
H    -4.03139432     0.23602181    -0.74696711
O    -1.09530824     0.55462965     3.68414779
H    -0.72375130    -0.11083069     3.10238617
H    -1.96512889     0.15278216     3.71977072
O    -4.10636265    -2.06890215     0.95255711
H    -4.54440153    -2.30152829     0.13198049
H    -3.16845501    -2.01474831     0.76089312
O     0.93315373    -0.59101615    -2.67814689
H     1.15626359     0.14606294    -2.10694151
H     1.78755773    -0.91637752    -2.96706191
O     1.71076217    -2.56077249    -0.19720241
H     1.02742919    -3.16436452    -0.49396945
H     1.79398211    -2.04400213    -1.00054685
O    -0.38489347    -2.89983046    -1.90493208
H    -1.27628672    -2.62298322    -1.68558963
H    -0.16311258    -2.30260421    -2.62150212
O    -4.35007038    -2.70460044    -2.38015018
H    -5.09886322    -2.50441695    -2.94457380
H    -3.82217776    -1.92550000    -2.56363968
O    -2.10825852     0.04422708    -0.01329858
H    -1.22724402     0.30205594    -0.29020346
H    -2.28006240     0.43932193     0.84327675
O    -2.56216058    -0.66263909    -3.13650464
H    -3.22186323    -0.03012126    -2.84658751
H    -1.74701170    -0.33741286    -2.75037189
O    -0.33380246     2.29459901    -3.46242799
Cl     0.64129865     3.19256343    -4.53200732
H    -0.75602121     1.71743436    -4.10988354
O    -0.12233533     3.31667445     4.61818690
Cl     1.29879819     3.89951394     3.88208751
H     0.12394385     3.04384713     5.51009436
O     0.67553613    -1.43171755     1.80877667
Cl     1.63504380    -2.20337548     2.98565937
H     1.00269197    -1.72775209     0.95091961
O     0.84198941     0.48442921     5.61551539
Cl     2.40840039     0.90934384     5.09882879
H     0.19721530     0.67582911     4.92398050
C     4.74919160    -0.73130376    -0.37108553
C     4.56337798    -0.82005216     1.00307585
C     3.64832076     0.04784146     1.56798278
C     2.80266718     0.84012555     0.78437140
C     3.03005175     0.96845935    -0.58556369
C     4.03614086     0.18483815    -1.13884841
H     5.20053294    -1.42779363     1.63197867
H     3.40239479    -0.03858064     2.62062095
C    -1.49194363     3.10359189     0.80055738
C    -1.77479165     3.12980217    -0.56735618
C    -2.55687587     3.32947457     1.67734327
C    -3.06113449     3.40424347    -1.01420472
H    -1.03649693     2.89735728    -1.31786021
C    -3.81897409     3.69462426     1.23821217
C    -4.06914775     3.74308446    -0.12529334
H    -3.28207586     3.29238149    -2.06777343
H    -4.56488411     3.84252873     2.00797420
Cl     5.79016487    -1.89087692    -1.13067306
Cl    -5.70211855     3.96625484    -0.69645118
N     1.76857361     1.54494274     1.41952350
H     1.71329828     1.57184831     2.42549341
C     0.64927031     1.88967191     0.67848629
O     0.51469687     1.43969917    -0.43445973
N    -0.24735339     2.71380394     1.33050299
H    -0.13164854     2.77349814     2.32995136
H    -2.43831978     3.27102114     2.75435382
H     2.54888726     1.60782791    -1.30781955
Cl     4.29781885     0.32598352    -2.84675702
