%nproc=8
%mem=4000MB
#opt=(noeigen,calcfc,ts,recalc=5,maxcyc=200) freq B3LYP/SVP em=GD3BJ

ts-620.gjf

0 2
O  0.70551825873708  0.26236081090948  -2.77277182313747
H  1.43934344779923  -0.34326902967962  -3.00173533168951
O  2.90946383248226  3.90233934772389  1.29712133955478
H  2.15534327612622  3.34147753853900  1.71852347632561
C  -5.70692141689627  -0.09568626519796  0.87345308130930
C  -5.22111348089287  -1.33212296260085  0.56417604024438
C  -3.94067094220560  -1.71287784496772  0.81923770257665
C  -3.09403151108634  -0.86921331970828  1.53588677914572
C  -3.50964806580122  0.37672722255739  1.92917483807356
C  -4.70226234696529  0.78262549851155  1.29394284975164
H  -5.86763261975593  -2.10346766021236  0.21780702885580
H  -3.70733747924061  -2.73315678290262  0.56489552518690
C  1.51278719403658  -0.97571048652763  3.04677383973446
C  2.52164822208913  0.01828869682607  2.88123312671139
C  1.84329806942252  -2.09005769485649  3.90178275169244
C  3.74985172553784  -0.13572456659204  3.44717027326137
H  2.32116098251242  0.83341301621568  2.21103024628924
C  2.96050470087096  -2.06172243312006  4.66886364049063
C  3.95060215893556  -1.17784107307943  4.38025260275816
H  4.51381141067892  0.62200862188547  3.40098684480816
H  3.17954400204169  -2.90949433465829  5.31007602987133
Cl  -7.35723428046113  0.15536563548656  1.13292119266059
Cl  5.53487636745052  -1.10942332234251  5.08680197828682
N  -1.83382938932776  -1.17250460030474  2.01576505913602
H  -1.79945414228498  -2.10274559410409  2.39863832540077
C  -0.73672016744923  -0.35625920435665  2.16310639204802
O  -0.90045796985793  0.86201209360338  1.94040119819119
N  0.47046363442016  -0.93341621434156  2.31898909508281
H  1.13113419909463  -2.91170983676222  4.01864654896695
H  -2.77495422402264  1.02103638544743  2.33177979216605
Cl  -5.14488472590231  2.36486075107806  1.66236120308538

