%nproc=8
%mem=4000MB
#opt=(noeigen,calcfc,ts,recalc=5,maxcyc=200) freq B3LYP/SVP em=GD3BJ

ts-640.gjf

0 2
O  -1.20663704331016  -3.09111873194463  -0.57338756453385
H  -1.03714525353453  -2.94785993922914  -1.47155676597138
O  1.63937301199640  0.27392176404111  0.84309330916481
H  2.28503019237281  0.77409601144592  0.18207838807345
C  -5.30215411171854  -0.23806639052103  1.31725925081173
C  -4.72652496183114  -1.49777997797388  1.41860449116034
C  -3.33960570861177  -1.64252372070199  1.38577934153969
C  -2.44807643768732  -0.51036267500291  1.20313931431732
C  -3.04724143240033  0.71147790449068  1.11242649883907
C  -4.41425166122749  0.84442603326902  1.15242391678629
H  -5.43461235258791  -2.31940345451532  1.27813259917111
H  -2.78598301863961  -2.55016829401512  1.29420200858209
C  1.82879011651128  -1.08379597854579  2.83175570689455
C  2.04049805383699  -0.73056064934509  4.20220254630043
C  3.03789550890177  -1.10767439200317  2.00968974872207
C  3.28373444385170  -0.54782307391478  4.68549233628537
H  1.25404968436835  -0.89384503719831  4.95371103703237
C  4.34496263901736  -0.79910037377577  2.50491688790388
C  4.41825276277788  -0.73394414828139  3.83972665619708
H  3.44721585638482  -0.32857941550608  5.75306129484404
H  5.25485345923044  -1.08435977192282  1.96804315434687
Cl  -6.97532829799877  0.24356498088320  0.93049842004245
Cl  5.80737036418987  -1.12773738240795  4.63987035709154
N  -1.19607189728310  -0.87747286399036  0.91665135570481
H  -0.95124737656714  -2.13388592594358  -0.21023658784388
C  -0.12931439700942  -0.43580889595374  1.60433637063639
O  0.40662033285912  0.86088337827232  1.12581367068948
N  0.57068026848683  -1.14627464522184  2.33697391436390
H  3.15334644645994  -1.30078954866445  0.97186587827063
H  -2.57463032570097  1.68185568353323  1.15517484064054
Cl  -4.81384079976536  2.53979181491201  1.24146935615582

