%nproc=8
%mem=4000MB
#opt=(noeigen,calcfc,ts,recalc=5,maxcyc=200) freq B3LYP/SVP em=GD3BJ

ts-650.gjf

0 2
O  -0.49477823595158  -3.64727416601358  0.88059098044517
H  -0.61552541590925  -2.82411438803368  0.33277613771054
O  2.03806737063951  1.02697176619039  -0.33669548086188
H  1.37585311191764  1.76707604857104  -0.55057498765732
C  -5.21847553429966  0.16778401236584  1.29701781667212
C  -4.74107714827435  -1.07354607806793  1.66233586066105
C  -3.43055871138352  -1.38920564840444  1.59269669382557
C  -2.37658902205868  -0.45384098599347  1.38965632660682
C  -2.80505922993934  0.86332664731280  1.02436477925814
C  -4.21115742112254  1.21547683420079  1.11941943825682
H  -5.41922790531076  -1.88177994879477  1.79549200424692
H  -3.20907923925548  -2.42400982285169  1.82581641018282
C  2.04280806215076  -1.25771725231544  2.87188783955483
C  2.32866138587533  -1.77660494148527  4.15157170273105
C  3.04483087637983  -0.56679260688077  2.15399486744061
C  3.52658112785745  -1.49136974163989  4.83508389865961
H  1.48063189333686  -2.27035816895103  4.57706019671237
C  4.34023457136699  -0.30480127553866  2.79390932438657
C  4.48662052215141  -0.75286007137867  4.13070024350750
H  3.88913124345575  -2.01469475318330  5.69560872561305
H  5.04457245734019  0.42637400588039  2.37953921425588
Cl  -6.79097894909724  0.09551367794753  1.61867251826922
Cl  6.11940496310107  -0.84273195189290  4.48341965047096
N  -1.19863891652254  -0.94617010613597  1.85303873284935
H  -0.66493392390112  -3.29640133873128  1.64197061741086
C  0.12569323688590  -0.63544788036915  1.39919317136641
O  0.64981065986327  0.37715933348083  0.65345821003465
N  0.77414376264260  -1.44061037267611  2.23469119749492
H  2.70274389672747  -0.17622138919581  1.18262904379716
H  -2.17072844134245  1.66769622683881  0.75321721305133
Cl  -4.77711449831363  2.87281330066588  1.06568156592040

