70
 energy: -143.143591626179 gnorm: 0.119530503403 xtb: 6.6.1 (8d0f1dd)
O    -0.97900190    -0.30642367     1.68338810
H    -1.84232281     0.03348903     1.92520286
H    -0.93887042    -0.27156543     0.72604121
O    -2.87790741    -0.12220680    -0.34484946
H    -2.79847835    -1.00541461    -0.70950517
H    -2.56495568     0.50095576    -1.00292825
O     3.06562595    -2.74778702     3.20318122
H     3.92421202    -2.34086637     3.33196066
H     3.01863684    -3.02104699     2.28532536
O    -4.27325909    -1.20635917     2.20386070
H    -3.85950361    -0.88721672     1.39993690
H    -4.41192276    -2.13841417     2.02670450
O    -4.71284053     0.80862095    -2.21733060
H    -4.87182501     0.21547016    -2.95369686
H    -4.58762276     0.35189304    -1.38362907
O    -0.06758904    -0.69810272    -1.12154971
H     0.43508115    -0.67975413    -1.93783642
H    -0.81377956    -1.25489867    -1.35071654
O    -2.03786111    -2.86628068     2.15774016
H    -2.17385232    -3.19650690     3.04756850
H    -1.43808174    -2.12237143     2.07898529
O     0.96417373    -0.63576025     3.72748502
H     0.42710186    -0.59074196     2.93447471
H     1.62027163    -1.32635685     3.61817633
O     1.37213106    -1.09946771    -3.36243632
H     2.31460763    -0.96109127    -3.25321878
H     1.09650524    -0.51897761    -4.07405383
O    -2.02436608    -2.94057383    -0.65681965
H    -1.48231803    -3.65704799    -0.99176294
H    -2.30730669    -3.13056639     0.23938665
O     0.01602425     1.40145441    -3.24567152
Cl    -1.67288415     1.29586468    -3.05176060
H     0.28123637     1.84425521    -2.43070133
O     1.96349482     1.68933352     4.60239225
Cl     0.66160711     2.58493068     3.96665742
H     1.69099122     0.77936311     4.43421754
O     1.46211484    -1.83198172     0.46114129
Cl     2.63518366    -2.77131482    -0.34056106
H     0.78792739    -1.54261931    -0.16521867
O    -4.07026355     1.48557384     4.19063200
Cl    -2.37090121     1.59887491     4.21279849
H    -4.32139810     0.75084899     3.61818208
C     5.27994104    -0.15207583    -0.23692749
C     4.91129198    -0.00600823     1.09479502
C     3.82095337     0.72707550     1.52309281
C     2.98568407     1.32482160     0.57340035
C     3.38647370     1.28347429    -0.76172276
C     4.47572927     0.51519744    -1.15627909
H     5.54859517    -0.43839795     1.85487315
H     3.42456331     0.93206085     2.51145079
C    -1.54878333     3.18907372     0.40084378
C    -1.55798745     3.83496949    -0.83795055
C    -2.57548950     3.40691133     1.32403301
C    -2.71389641     4.50080233    -1.22552068
H    -0.67368159     3.80206101    -1.45381271
C    -3.73748079     4.01512316     0.87803195
C    -3.82775737     4.54252809    -0.40172454
H    -2.70858520     5.11653568    -2.11556530
H    -4.61118802     4.09428481     1.51140400
Cl     6.74683358    -0.96347216    -0.67859587
Cl    -5.36379236     5.16592514    -0.94448829
N     1.80554314     1.90120987     1.06794967
H     1.74522157     1.89170761     2.07394459
C     0.77090865     2.31536774     0.24404495
O     0.91273838     2.25408753    -0.95402158
N    -0.45896707     2.42719583     0.86303899
H    -0.48942873     2.20292271     1.84519056
H    -2.55999550     2.99456000     2.32760182
H     2.77529395     1.73787891    -1.52457321
Cl     4.94509612     0.27791475    -2.80816926
