70
 energy: -143.148852094421 gnorm: 0.124738695346 xtb: 6.6.1 (8d0f1dd)
O    -1.04468130    -0.00680134     1.84756984
H    -1.36353308     0.26013820     2.71152287
H    -1.74467000     0.03537271     1.19367699
O    -3.11373649     0.10686073    -0.11784492
H    -3.27087454    -0.81602150    -0.32505209
H    -2.59649367     0.42059115    -0.86173413
O     3.04064317    -1.92569462     3.09623887
H     3.57814052    -2.71779625     3.15110422
H     2.88090831    -1.68617961     2.18165935
O    -4.44997026    -0.74515617     2.45981465
H    -4.28699500    -0.24200181     1.66005610
H    -4.98703367    -1.53180135     2.34985685
O    -3.95063546     0.94355079    -2.87631619
H    -4.50283858     0.16571290    -2.97316203
H    -4.46094186     1.59926134    -3.35482342
O    -0.44553186    -1.41173141    -1.03319094
H     0.06313859    -1.45574738    -1.84476653
H    -1.19497718    -2.00535547    -1.10586574
O    -1.43200579    -2.79392136     2.45873081
H    -0.89315119    -2.96678492     3.23274072
H    -1.20913312    -1.88452580     2.25217315
O     0.75488856    -0.97751052     4.03893274
H     0.43351398    -1.28678282     3.19016469
H     1.66496743    -1.27331797     4.09885706
O     0.94263643    -1.04474019    -3.24136788
H     1.88728938    -1.09500690    -3.08502641
H     0.78591983    -0.11784754    -3.43017396
O    -2.99414185    -2.71846488     0.02628601
H    -3.79594552    -2.94983835     0.49842532
H    -2.30512340    -2.86078199     0.67769810
O     0.30574363     1.47635769    -3.27326795
Cl    -1.37217112     1.24325235    -3.09599352
H     0.69894460     1.93724054    -2.52255735
O     1.12309558     1.63843561     3.43486566
Cl     0.38666529     2.73656220     4.50862218
H     0.88040581     0.72622886     3.63378175
O     1.81933214    -1.60669919     0.20041718
Cl     2.94068017    -2.17290066    -0.94986901
H     0.96864925    -1.48319336    -0.23738534
O    -4.29473550     1.31609736     4.81421718
Cl    -2.63251859     0.95387739     4.73059634
H    -4.73799994     0.82686311     4.11082926
C     5.34038406    -0.18348290    -0.18822459
C     5.05573559     0.09869920     1.14221555
C     3.97495046     0.90561316     1.44301824
C     3.21622262     1.45423945     0.40367610
C     3.41946852     1.14369078    -0.94062523
C     4.56313295     0.39333500    -1.18841408
H     5.70622818    -0.36805235     1.87011476
H     3.69315298     1.10684347     2.47068161
C    -1.38511580     3.14803667     0.35904657
C    -1.36475676     4.12627329    -0.63820770
C    -2.56445898     2.82804686     1.03773156
C    -2.55132330     4.75675248    -0.99066390
H    -0.40523610     4.49672877    -0.96139319
C    -3.76782543     3.30276660     0.54213831
C    -3.73177488     4.24487325    -0.47531829
H    -2.58174167     5.54834155    -1.72808960
H    -4.68705510     2.89979430     0.94639218
Cl     6.60963086    -1.23951664    -0.71644210
Cl    -5.18780202     4.99233458    -1.07856487
N     2.07281915     2.16840593     0.79371417
H     1.85676899     1.96281117     1.75642277
C     1.01708952     2.61627243     0.01546955
O     1.01987984     2.75445710    -1.18458525
N    -0.15360013     2.58795860     0.74822973
H    -0.29964510     1.87061058     1.44100006
H    -2.52572550     2.10719617     1.84785380
H     2.70814140     1.50479845    -1.66559413
Cl     4.83363892    -0.16199302    -2.80822473
