70
 energy: -143.134665647602 gnorm: 0.100947668933 xtb: 6.6.1 (8d0f1dd)
O    -0.86875229    -0.85886311     0.62771896
H    -0.27347127    -1.19563850    -0.04426382
H    -1.53955445    -0.29259636     0.24209595
O    -3.66453118    -0.86700267    -2.64353376
H    -4.59133767    -0.75900269    -2.42284272
H    -3.32292467    -1.52480621    -2.03530883
O     0.21404477    -0.17860055     2.87957038
H     1.07664437    -0.59690278     2.86272432
H    -0.08496546    -0.14112966     1.96933570
O    -2.49193640     0.93867891    -0.55334355
H    -2.91776299     1.78761084    -0.68496906
H    -2.88248007     0.24769358    -1.09125931
O    -0.69666825    -1.21386679    -3.56274660
H    -0.14034544    -0.50359799    -3.88734229
H    -1.61547933    -0.94159399    -3.59423987
O     3.68017887    -2.88239638    -1.89364359
H     4.23074337    -3.38388293    -2.49757069
H     3.76526692    -1.95060068    -2.10306246
O    -0.51426232    -3.68603724    -0.87938963
H    -0.09369972    -4.52614373    -0.68785473
H    -0.35442633    -3.33661491    -1.75785139
O    -3.08944131    -1.78277038     2.08824713
H    -2.38927073    -1.12772242     2.08485584
H    -2.69703010    -2.63564870     2.28305096
O     1.20779358    -1.46533877    -1.30245235
H     0.63568295    -1.91056764    -1.92998664
H     1.51371542    -0.66311603    -1.72928759
O    -3.39731797    -2.29969869    -0.45085069
H    -2.46983470    -2.53057921    -0.37464502
H    -3.80327710    -2.17036854     0.40810752
O    -0.69530256     1.81381548    -3.27772073
Cl    -1.16742326     3.32764406    -3.89948218
H    -0.51375565     1.94177036    -2.33896907
O     1.95052629     2.57412293     4.22390530
Cl     2.80667190     1.83017604     5.49462256
H     1.03704376     2.59575422     4.53320914
O     3.00550122    -2.59069400     1.83796175
Cl     1.39317719    -3.12344062     1.70470989
H     3.44261431    -2.72695839     0.98887384
O    -0.74352978     1.83668164     4.24526006
Cl    -1.96892983     1.26042605     5.27845175
H    -0.51995125     0.94581575     3.95037250
C     4.75697020    -0.12894853    -0.51479145
C     4.59340851    -0.06520235     0.86357951
C     3.55585343     0.67859296     1.39267019
C     2.64513313     1.35059786     0.57054559
C     2.76992159     1.29208242    -0.81722217
C     3.86909550     0.59493797    -1.30528756
H     5.15013569    -0.71706196     1.52385884
H     3.42590874     0.89709259     2.44688450
C    -1.84331887     3.50373093     0.92560623
C    -2.10053322     4.23786649    -0.23489514
C    -2.89890600     3.23327584     1.80107594
C    -3.38808523     4.59891274    -0.61109336
H    -1.21836781     4.52903898    -0.78204124
C    -4.17598285     3.67716117     1.49924326
C    -4.40950373     4.25977559     0.26226666
H    -3.63065246     5.05341188    -1.56289531
H    -4.99831823     3.46639347     2.17016249
Cl     6.02880566    -1.06417244    -1.23103114
Cl    -6.02426296     4.64013488    -0.27671334
N     1.47863686     1.88270977     1.14122806
H     1.55970733     2.06531037     2.12907390
C     0.40889968     2.46120128     0.47652938
O     0.28184493     2.42806187    -0.72430088
N    -0.56376968     3.03168530     1.27447420
H    -0.48749708     2.70066996     2.22339962
H    -2.74674989     2.77143038     2.77111276
H     2.12112306     1.85019037    -1.47261591
Cl     4.04409227     0.72683663    -3.02497594
