70
 energy: -143.140569794973 gnorm: 0.125238245694 xtb: 6.6.1 (8d0f1dd)
O     1.34920792    -4.03460181     0.56980110
H     0.92495289    -4.01308790     1.42938405
H     0.88442723    -4.63128581    -0.01950851
O    -1.67597459     0.73807378    -1.52671312
H    -0.84538240     1.18220253    -1.34725545
H    -2.03156947     0.23552129    -0.79164078
O    -1.22037950     0.65760396     3.32867345
H    -2.04571456     0.35056180     2.94935066
H    -0.82588834    -0.06946806     3.81352535
O    -3.24447446    -0.11079168     1.83589576
H    -4.10522560     0.00855696     1.43067687
H    -3.04936557    -0.90619229     1.33728884
O     2.46980812    -2.08519943    -1.94533532
H     2.14589087    -1.18326548    -1.97586322
H     2.02424074    -2.50097930    -1.20510906
O    -0.47258902    -1.69683286    -2.47490958
H     0.28935427    -2.27045522    -2.57358987
H    -0.28085040    -0.86188120    -2.90552714
O    -0.15601076    -1.56398013     0.79525732
H    -1.10063623    -1.72670028     0.77196965
H     0.32590855    -2.23613162     0.31017513
O    -2.85803441    -1.78468632    -0.70790395
H    -2.06859611    -1.82811715    -1.25034207
H    -3.52906086    -1.62431352    -1.37374221
O     1.20262876     0.30356863    -3.08509059
H     1.02164771     0.94803929    -2.39861989
H     0.94597990     0.76195579    -3.88718185
O    -5.18466721     0.51706945    -0.04471055
H    -4.95339723     1.44693636    -0.01006859
H    -4.93329139     0.20933559    -0.91732063
O    -4.01106031     0.35551760    -2.39419898
Cl    -4.47931759     1.22505403    -3.78193229
H    -3.08075894     0.59905031    -2.31792591
O     2.77011201     2.20961725     3.50111922
Cl     2.11055552     1.14308455     4.65379345
H     2.26172681     3.02075310     3.62024193
O     0.91905945    -1.02497106     3.19805730
Cl     1.34888821    -2.63991879     3.52723033
H     0.62692115    -0.97307370     2.28015316
O    -0.12312933     2.95343445     4.35698189
Cl    -1.32264725     3.55929259     5.40352549
H    -0.53898384     2.11378958     4.12752690
C     5.15573443    -0.62215775    -1.04857874
C     4.70512410    -1.02962681     0.20107792
C     3.57119732    -0.51287909     0.79846450
C     2.91764194     0.48303794     0.06504411
C     3.23781596     0.84390300    -1.24345139
C     4.38985842     0.28080826    -1.78022314
H     5.17094076    -1.89608896     0.65173641
H     3.18385952    -0.81710881     1.76459554
C    -1.29099037     3.01016400     0.71079659
C    -1.26833761     3.70023433    -0.50376804
C    -2.45011577     2.96018825     1.49040411
C    -2.38220837     4.43502769    -0.88982528
H    -0.37859983     3.78500352    -1.10671653
C    -3.57988602     3.65302785     1.08709927
C    -3.51095386     4.38876387    -0.08679313
H    -2.40976016     5.01950884    -1.80029652
H    -4.50446336     3.63569428     1.64892430
Cl     6.63327677    -1.38648645    -1.53630685
Cl    -5.01052931     5.14346804    -0.56041218
N     1.77680917     0.99006823     0.70610250
H     1.89589687     1.02911454     1.70612662
C     0.79324927     1.77766201     0.12893690
O     0.77225051     2.04687543    -1.04848295
N    -0.22790745     2.13049332     0.98975188
H    -0.20286716     1.85961771     1.96024012
H    -2.42006563     2.41346106     2.42721274
H     2.81801099     1.75639647    -1.63471139
Cl     5.06927581     0.74315819    -3.30664830
