70
 energy: -143.151068846127 gnorm: 0.105807788768 xtb: 6.6.1 (8d0f1dd)
O     0.34941276    -1.01795069     2.48974195
H     0.12931143    -0.74056810     1.59870193
H     0.94676035    -1.75340518     2.34270038
O    -1.40557867     1.12624983     1.61663731
H    -1.55209104     1.07553825     2.56284092
H    -1.77282732     0.32290241     1.24367697
O    -1.91100928    -2.99458902     0.20149897
H    -2.03881533    -3.54830862    -0.57076966
H    -1.06406926    -2.57985325     0.02822113
O    -0.12950928    -0.86151345    -0.26697300
H    -0.64139446    -0.18686079    -0.71659099
H     0.16057753    -1.50643296    -0.91448125
O    -2.37078720    -1.64080575     3.44461721
H    -2.50161331    -2.48330493     3.00596149
H    -1.48979761    -1.35509505     3.19649455
O     1.34804967    -1.06857526    -3.97765198
H     1.18231332    -0.12792033    -3.89376073
H     2.26143173    -1.18371785    -4.24563490
O    -0.23642286    -2.54757948    -2.22239035
H     0.24122119    -1.94951155    -2.79989217
H    -0.66928741    -3.16617863    -2.81340807
O    -0.21304098     0.85151476     4.54978455
H    -0.94281477     0.41467960     4.99243954
H     0.46921937     0.22029673     4.31436760
O     0.54291593     1.54812956    -3.83418576
H     1.09846519     2.14721409    -3.33238765
H    -0.21819114     1.40210592    -3.26962317
O    -2.34104453     1.23273199    -2.85635158
H    -2.50997327     2.16256655    -3.01824389
H    -3.14278735     0.85822583    -2.48717428
O    -3.30893142    -0.90846366     0.91759896
Cl    -4.36977400    -0.27090146    -0.25256756
H    -2.89292787    -1.72748387     0.62309371
O     0.36221039     2.89966478     2.81465322
Cl     0.99751118     3.91364794     4.02683955
H     0.07626486     2.15727624     3.36025521
O     2.18752975    -3.27374666     1.45195916
Cl     2.21531604    -3.51719775    -0.23360405
H     2.25158116    -4.16480496     1.81596279
O    -4.23388422     0.41302953     3.67525859
Cl    -3.14762095     1.40257698     4.53664631
H    -3.63443786    -0.28957064     3.39668162
C     5.11090699    -0.48261810     1.20827615
C     4.32528703    -0.05449810     2.27140233
C     3.21031477     0.73249560     2.05422313
C     2.81029170     1.07580173     0.75845562
C     3.73197382     0.84954213    -0.26340754
C     4.88722848     0.11248385    -0.02988344
H     4.40253581    -0.46647612     3.26897024
H     2.62219724     1.04934039     2.90846121
C    -0.99071368     3.85004833    -0.84748501
C    -0.72283240     4.44253160    -2.08404501
C    -2.31552019     3.68060109    -0.43513508
C    -1.81756970     4.88450717    -2.81608143
H     0.26639658     4.67976927    -2.44113088
C    -3.42236389     4.07118510    -1.17093632
C    -3.11679341     4.68951313    -2.37442276
H    -1.70188383     5.40652131    -3.75706666
H    -4.41518966     3.86019460    -0.79600830
Cl     6.44635690    -1.55638253     1.47059697
Cl    -4.42745674     5.39831119    -3.28127823
N     1.59678365     1.75770674     0.57974116
H     1.13074047     1.92495149     1.45757242
C     1.10252324     2.53216325    -0.45791872
O     1.53716452     2.66692133    -1.57691897
N    -0.08505345     3.11463562    -0.05962112
H    -0.23402968     3.07323343     0.93634072
H    -2.54073499     3.16292913     0.49153534
H     3.44047721     1.20106060    -1.23984472
Cl     5.88901671    -0.46775993    -1.32026592
