70
 energy: -143.153840857316 gnorm: 0.101449828910 xtb: 6.6.1 (8d0f1dd)
O     0.30296527    -0.45745806     3.21448960
H    -0.05419500     0.28079457     2.71774256
H     0.61842094    -0.96897414     2.46737669
O    -2.15335994    -0.51191279    -2.97517848
H    -1.21347303    -0.33757838    -2.90062047
H    -2.52216394     0.13387241    -2.36996516
O    -0.42673994    -3.41010748     2.41050325
H    -0.16374904    -3.53817818     3.32361458
H     0.39042609    -3.38868677     1.90938532
O    -0.90344731     0.23700650     0.60106695
H    -0.46871380     0.02605483    -0.22709073
H    -1.32820882    -0.57138271     0.89333910
O    -3.79499001    -0.10278971    -0.43344595
H    -3.50191346    -0.83959415     0.10559444
H    -4.35368697     0.35807383     0.19488566
O     1.01890205    -1.84741984    -0.02174282
H     1.13201708    -0.97137827    -0.39469607
H     0.41485832    -2.33488534    -0.58463536
O    -2.61653359    -2.01033250     1.43367412
H    -2.01229117    -2.64641189     1.82049649
H    -3.30331378    -1.82821744     2.07749526
O     1.83377668     0.33598472     5.25635843
H     1.16115522    -0.12176648     5.76368711
H     1.83912821    -0.05916367     4.38276492
O     0.48857180     0.09011039    -2.37802783
H     0.43446198     0.88992974    -1.85200527
H     1.41662006    -0.04819129    -2.57535216
O    -1.48585304    -2.48550632    -1.06805044
H    -1.80121563    -2.02864031    -1.84981653
H    -2.23881803    -2.53256029    -0.47630054
O    -2.26039830     1.81800272    -4.54878137
Cl    -3.86994338     2.31317408    -4.29317980
H    -2.20331525     0.85511929    -4.53523764
O     0.53511205     2.61867522     4.21893644
Cl    -0.46720789     3.51096818     5.26790387
H     0.89526853     1.83992483     4.65986981
O     2.67714580    -3.31100461     1.43652222
Cl     4.29244413    -3.49899048     0.92992927
H     2.16594611    -3.03782765     0.66539618
O    -3.53119373     1.00963870     2.31935526
Cl    -2.52001415     0.82024632     3.67685562
H    -2.88490572     1.11642849     1.61119156
C     5.24416649    -0.38390391    -0.45375181
C     4.97523272    -0.18324960     0.89463054
C     3.97238910     0.68187335     1.28903626
C     3.20093741     1.29327764     0.29508559
C     3.47820803     1.15805737    -1.06496292
C     4.52124123     0.31025860    -1.41953371
H     5.55570895    -0.75051609     1.61023585
H     3.76890180     0.78999426     2.34870520
C    -1.20416347     3.47433930     0.57092560
C    -1.55065662     3.65158959    -0.77086511
C    -2.09486986     3.65867409     1.63230206
C    -2.83506900     4.08846170    -1.06935656
H    -0.87458825     3.62230705    -1.61017441
C    -3.36581294     4.13265003     1.35103205
C    -3.68590369     4.27458090     0.00883979
H    -3.16253168     4.36094674    -2.06427127
H    -4.06428938     4.30175760     2.15993523
Cl     6.49835836    -1.51300934    -0.85040295
Cl    -5.31702906     4.78959471    -0.33293603
N     2.13271160     2.05584846     0.79199035
H     2.02692743     1.88904509     1.78029247
C     1.00808886     2.42600619     0.07155912
O     0.93209226     2.29424044    -1.12681336
N     0.11768319     3.10321437     0.88200360
H     0.31017150     3.10267242     1.87134480
H    -1.79480451     3.40271609     2.64317809
H     2.91380841     1.64999838    -1.84047053
Cl     4.86776391     0.12534098    -3.10804688
