70
 energy: -143.145348495974 gnorm: 0.108513659246 xtb: 6.6.1 (8d0f1dd)
O    -1.97791944    -2.02764454     2.54774659
H    -2.56479980    -1.43823542     3.02472286
H    -2.58084736    -2.31071983     1.85804739
O    -0.23099839     2.03915887    -4.09059235
H     0.01705125     2.93207135    -4.33659536
H    -0.04307784     1.97032764    -3.15288973
O    -3.65703851    -0.15690650     3.78923813
H    -4.45072321     0.37116669     3.89191196
H    -2.92495632     0.45182687     3.90254184
O     1.67455046     1.62819122     3.60242851
H     2.33168528     0.95573997     3.79037030
H     1.81147925     1.97135625     2.71765355
O    -0.89856868    -1.14298915    -0.95074150
H    -0.32640198    -1.90143549    -1.08006131
H    -1.24755347    -0.85813279    -1.79714836
O     0.99585424    -3.27477582    -2.02728363
H     1.15840904    -2.53901216    -2.62021344
H     1.74289857    -3.87395905    -2.07465125
O    -2.61455413    -3.29225011     0.02551365
H    -2.28475151    -2.44707999    -0.28473649
H    -2.22036753    -3.97747129    -0.51709805
O     0.61118163    -0.81763044    -3.68191171
H    -0.34503613    -0.87599826    -3.64217555
H     0.86535064     0.09755688    -3.55088958
O     0.72860730     3.93865164    -2.08780027
H     0.44877978     3.44819791    -1.31288718
H     0.78955118     4.86314061    -1.84093230
O    -2.05655367    -0.41581855    -3.43979105
H    -2.27307173     0.29557421    -4.04508321
H    -2.74987562    -0.44345978    -2.77806684
O    -2.83301316     2.54586864    -3.89920082
Cl    -2.89667749     2.35014468    -2.20840183
H    -1.97045534     2.20897937    -4.16954511
O     3.01098277     3.57997057     0.90320165
Cl     2.29748015     5.11797403     0.74003294
H     2.35134215     2.89518149     0.74033585
O     0.69868927    -2.05960241     3.30183838
Cl     1.20147987    -1.28807274     4.73470523
H    -0.26545404    -2.09106760     3.29696585
O    -0.97609517     1.16881003     4.26786629
Cl    -1.64021975     2.68325368     4.67598369
H    -0.01492088     1.23203502     4.32016025
C     4.49334010    -2.07510122    -0.82235675
C     3.67008660    -2.84038142    -0.00545873
C     2.66435468    -2.24482082     0.73176566
C     2.42471497    -0.88978926     0.48006516
C     3.18947717    -0.09163811    -0.37022243
C     4.28814108    -0.70543405    -0.96064062
H     3.90779143    -3.89599940    -0.00686806
H     2.09701021    -2.82531483     1.45089183
C    -1.62781605     1.82183498     1.01361576
C    -1.39281059     3.19787741     1.06980421
C    -2.94986602     1.37222118     0.95125820
C    -2.38506643     4.16851149     1.01533066
H    -0.37918629     3.53416800     1.21758935
C    -3.96807420     2.30910356     0.88368726
C    -3.65975538     3.66006850     0.82111117
H    -2.27940044     5.23497588     1.16640553
H    -5.00044595     1.98597426     0.85945719
Cl     5.65100368    -2.92362204    -1.79448634
Cl    -4.95676759     4.81439455     0.65404646
N     1.32552597    -0.30472740     1.12738359
H     0.87189261    -0.99084066     1.70980964
C     0.68426508     0.85798455     0.73026948
O     1.20390117     1.79584699     0.17382837
N    -0.60317340     0.88116719     1.23048759
H    -0.88025690     0.04988600     1.72852813
H    -3.05526806     0.29476939     1.02482524
H     3.01907254     0.94965630    -0.59075172
Cl     5.17068415     0.29964682    -2.06349121
