70
 energy: -143.130556090916 gnorm: 0.113485453548 xtb: 6.6.1 (8d0f1dd)
O    -0.25812047    -2.28659938     0.96109556
H    -0.82399664    -1.61857593     0.57011365
H    -0.09416955    -3.00330143     0.34563073
O    -2.23271773     0.99834973    -4.64389605
H    -2.56761367     0.40258607    -5.31639078
H    -1.27449653     0.99578909    -4.67771402
O    -0.30988777    -0.10358004     3.56907744
H    -0.53307252     0.62062731     4.15648777
H     0.42608945    -0.61352974     3.91204565
O     0.03427140     0.85788614     6.18103408
H     0.98885454     0.83686542     6.09346626
H    -0.17314470    -0.07818970     6.17214308
O     1.04145097    -1.22725675    -2.91688163
H     0.51336068    -2.00847708    -2.74323076
H     1.39542949    -1.20965795    -3.80779554
O    -0.63100402    -3.49502557    -2.05118911
H    -0.90988859    -3.55587509    -2.96653534
H    -1.42689706    -3.13904709    -1.65222413
O    -1.40285224    -0.71915143    -1.09962131
H    -1.85732505     0.01554334    -1.51557262
H    -0.55147195    -0.66888921    -1.53775815
O    -1.84503453    -2.29917783    -4.98439509
H    -1.97831369    -3.04055289    -5.57763859
H    -2.33649852    -2.30746653    -4.16115092
O     0.34983573     1.30836428    -4.19522055
H     0.71873210     0.63074619    -4.76450763
H     0.82677202     1.28515912    -3.36375732
O    -3.00343990    -2.11041897    -2.60656105
H    -2.27779315    -1.69176296    -2.14018967
H    -3.84446309    -1.67541432    -2.45559996
O    -3.69474225     0.39643622    -2.43819098
Cl    -3.95456504     1.85902584    -1.60483275
H    -3.29033856     0.58612436    -3.29321289
O     1.67235379     2.00956217     3.51349051
Cl     2.88934921     3.18198864     3.72680478
H     0.80446423     2.42060126     3.42182984
O     1.30193786    -2.39434853     3.72350452
Cl     1.12209262    -3.87196844     4.55142897
H     0.89026271    -2.43487512     2.85203031
O    -1.08544392     2.62646516     3.84593949
Cl    -1.68317288     4.19443404     3.55378452
H    -1.03667203     2.46708751     4.79610165
C     5.03268420    -0.92804742    -0.15302096
C     4.40624329    -1.42530585     0.98321331
C     3.25303049    -0.82234781     1.44821947
C     2.60598423     0.09390137     0.61233108
C     3.29849452     0.64069992    -0.46763943
C     4.53213618     0.14910237    -0.87856711
H     4.88727602    -2.23524985     1.51559768
H     2.74285010    -1.13889837     2.35127383
C    -1.61329221     2.59290957     0.45075315
C    -1.33680497     3.68376035    -0.37718212
C    -2.81376556     2.60052820     1.16675790
C    -2.23855448     4.72826661    -0.53694440
H    -0.35272801     3.74481777    -0.81333638
C    -3.70369350     3.65027846     1.00828090
C    -3.42860396     4.72343301     0.17356684
H    -1.91334544     5.52488398    -1.19343128
H    -4.64840570     3.63933738     1.53571827
Cl     6.29648173    -1.89679025    -0.83826662
Cl    -4.66825480     5.95050825     0.16045161
N     1.25916746     0.44114997     0.79951529
H     0.81834505     0.11840837     1.64643215
C     0.50652586     1.32557420     0.04311690
O     0.72962813     1.77027170    -1.05765728
N    -0.62528835     1.64198886     0.76915529
H    -0.85466716     1.19634696     1.64359035
H    -3.10522148     1.82838177     1.87122037
H     2.86921475     1.53149713    -0.89678292
Cl     5.22406219     0.72186562    -2.36131114
