70
 energy: -143.142453667989 gnorm: 0.110601111898 xtb: 6.6.1 (8d0f1dd)
O    -3.46240299    -1.55801542     3.83605473
H    -4.28097149    -1.17913196     3.51089176
H    -3.14835027    -2.34398689     3.38554567
O    -3.02334338    -1.20662348    -1.66225364
H    -3.53941141    -0.50499924    -2.06317260
H    -3.35657877    -1.31708476    -0.77001458
O    -1.38812399    -0.19020990     2.62145963
H    -1.38057916    -0.86901209     1.94432650
H    -2.19563017    -0.37207920     3.10539733
O    -2.61462484    -2.43393137     1.04693616
H    -3.27712403    -3.08505291     0.80929243
H    -1.89905853    -2.79101126     1.57589483
O     0.47170277    -2.69714947    -1.86291729
H     0.06495449    -2.04231724    -1.29275085
H     0.68876030    -2.21921783    -2.66529219
O     1.47176244    -4.04379089     0.09938934
H     1.56481393    -3.71234043    -0.79549613
H     1.11024006    -4.91434930    -0.07602185
O    -2.15010990    -3.94955167    -1.82231360
H    -1.19552380    -3.89128583    -1.75369927
H    -2.54929119    -3.12563975    -2.10720309
O    -4.30322368    -4.37507917    -0.34592968
H    -5.05189050    -4.16467978    -0.90679354
H    -3.53177817    -4.35158407    -0.91483768
O    -0.50730639    -0.49573172    -0.73375463
H    -1.32566538    -0.97528646    -0.59356047
H    -0.73957531     0.16695540    -1.38662119
O    -3.55650372     1.44805281    -2.48082065
H    -3.24547629     1.94054449    -3.24243223
H    -4.00546428     2.10214131    -1.94235900
O     0.44487576     3.14205203    -2.91686414
Cl    -1.08116330     3.69456395    -3.43367898
H     0.60378135     3.28511309    -1.97618941
O     0.56346498     4.92224347     2.13997650
Cl     1.99003714     4.99994208     3.06734884
H     0.89615910     4.67901700     1.26777090
O    -0.25475185    -3.37907953     2.25173222
Cl     0.42772534    -2.95570301     3.75377783
H     0.48264739    -3.42702519     1.63162764
O     0.50023065     1.03009474     4.29644384
Cl     2.15065473     0.62573016     4.17918130
H     0.03499369     0.31115051     3.85230215
C     5.00413303    -0.46689885    -0.37108380
C     4.04926216    -1.34904351     0.11959419
C     2.81238932    -0.77459892     0.34286061
C     2.50415825     0.57418610     0.13630943
C     3.43735707     1.35316006    -0.54723645
C     4.69516023     0.81953864    -0.80332399
H     4.15502739    -2.42570688     0.09850910
H     2.03281586    -1.43551504     0.70542177
C    -1.83137338     2.84795543     0.49648350
C    -1.73082234     3.96449178    -0.33725117
C    -3.05317492     2.52839681     1.09559985
C    -2.87892344     4.61112651    -0.77702034
H    -0.78163018     4.41207188    -0.58437928
C    -4.19133992     3.17237540     0.63850652
C    -4.11168576     4.15733602    -0.33493598
H    -2.83233634     5.41949666    -1.49514465
H    -5.13032335     2.95433277     1.12999260
Cl     6.58667114    -1.09850670    -0.69022816
Cl    -5.52505634     4.85861706    -1.07871578
N     1.32517232     1.05684459     0.72500960
H     0.84891622     0.42765729     1.35195313
C     0.56755638     2.15292870     0.34365431
O     0.95458316     3.06305289    -0.34997275
N    -0.71932227     2.05435581     0.83607701
H    -0.99907425     1.34233412     1.49228733
H    -3.14229042     1.78088722     1.87708042
H     3.17447964     2.35929544    -0.83105326
Cl     5.88676370     1.83329364    -1.55013800
