70
 energy: -143.136068175540 gnorm: 0.089213793800 xtb: 6.6.1 (8d0f1dd)
O    -1.11333555    -2.09647413     1.35014948
H    -1.27484855    -3.00300837     1.08285329
H    -0.55192705    -2.00477094     2.12199772
O    -0.94690625     2.41872116    -2.99712342
H    -0.89342171     1.52724982    -2.64818638
H    -1.39764876     3.00201395    -2.38398494
O    -0.47822823    -0.08323032     5.53521780
H    -0.83860781     0.77569493     5.30781376
H     0.03995674     0.06707309     6.32782841
O     0.74388195     3.11376471     2.73987444
H     0.86820835     3.59428276     1.91951822
H     1.57795520     2.66166197     2.87866699
O    -2.82591860    -1.65363095    -1.05629217
H    -2.44159062    -0.77806516    -1.12711408
H    -3.44439171    -1.89437359    -1.74829803
O    -0.63587426    -0.25215634    -2.42150095
H     0.23142146    -0.42556696    -2.79172369
H    -1.06221787    -1.09087703    -2.60621207
O    -3.23975712    -3.92115424     0.67400226
H    -3.16253964    -3.24407256    -0.00048666
H    -4.16702344    -4.08004683     0.85912088
O     0.54990291    -3.03822498    -3.49764913
H     1.12764523    -2.29677149    -3.68685464
H     1.03681466    -3.84114263    -3.69149627
O     1.88554892     2.55704580    -2.73854660
H     1.75894992     1.96570981    -1.99448139
H     1.03934030     2.62530712    -3.18420250
O     1.86841669    -0.27003916    -3.90369998
H     2.32557068    -0.06504245    -4.72121139
H     2.01773428     0.48465777    -3.33144558
O    -3.65506898     3.15738712    -3.61599610
Cl    -4.28765983     2.63898808    -2.12192332
H    -2.81713722     2.68817930    -3.70710484
O     1.89546657     4.34952133    -0.28557039
Cl     3.20235106     4.21684816     0.79868762
H     2.00532468     3.71602442    -1.00473655
O     0.74116764    -1.28117035     3.09649476
Cl     2.26332880    -1.51616538     3.82379564
H     0.31953655    -0.72976023     3.76639045
O    -1.17234290     2.95925522     5.10590424
Cl    -2.33022193     2.19117126     4.12075248
H    -0.46641995     3.24596766     4.51424823
C     4.55637446    -2.24638139    -0.52881143
C     3.40884000    -3.02107004    -0.64604879
C     2.16989290    -2.42246169    -0.51811511
C     2.06232880    -1.06286772    -0.20694785
C     3.21319090    -0.27564139    -0.23315159
C     4.46481420    -0.86915673    -0.34968535
H     3.58243566    -4.04338298    -0.95520199
H     1.24378008    -2.94482212    -0.73130544
C    -1.90433327     1.80921103     0.74095690
C    -1.64579596     3.17493876     0.60015963
C    -3.25561150     1.45416949     0.78396782
C    -2.65106047     4.11121631     0.80630831
H    -0.59939507     3.43240813     0.56668144
C    -4.26832695     2.38660019     0.93902542
C    -3.97771771     3.74267798     0.96514024
H    -2.35273851     5.15149470     0.79365337
H    -5.29767551     2.05308916     0.94076919
Cl     6.12963820    -2.93943241    -0.75181357
Cl    -5.27046952     4.88975090     1.20101418
N     0.79939562    -0.49893655     0.03078402
H     0.10259112    -1.21781691     0.14666880
C     0.36992436     0.79454148     0.28234575
O     1.06677667     1.77865418     0.21055814
N    -0.99240817     0.76219018     0.50874592
H    -1.38447317    -0.11973272     0.79916830
H    -3.47425016     0.39134478     0.77897780
H     3.20106538     0.79283989    -0.09114569
Cl     5.90770330     0.09171652    -0.33773481
