%nproc=8
%mem=4000MB
#opt=(noeigen,calcfc,ts,recalc=5,maxcyc=200) freq B3LYP/SVP em=GD3BJ

ts-3647.gjf

0 1
O  -1.05199554194299  3.46912776042857  -0.89679147993938
H  -1.45572165114935  4.02253608794693  -0.20770816858898
Cl  1.51531554709935  4.26029518577254  1.12805613299416
Cl  2.20515456307942  2.82130607050620  -1.15569626222245
C  0.36545062221734  2.90279577792879  1.04905393855706
C  -0.29620923778710  2.47837035582132  -0.23147826831239
C  0.80241203673251  1.64862487876338  -1.07868457433714
C  1.49653722599489  0.43113965154968  -0.50899900196636
C  1.88329752256267  0.77962970463403  0.76897122510159
C  1.06348860003297  1.64697326627811  1.53474649850914
H  -1.02550727070274  1.74405931034590  0.08873773292324
H  0.44494829040261  1.49276276522021  -2.06623246667010
C  1.83004935035096  -0.34925832564092  -4.17798187238348
C  2.56917959970512  0.83703431041732  -3.86795939992571
C  1.41328407012656  -0.31546339074375  -5.57276609266436
C  2.47140126331871  2.06393140473666  -4.49540522089926
H  3.07833536235167  0.67715052192396  -2.97083522039499
C  1.59024006788749  0.74762083947715  -6.31802680470317
C  1.98964761258967  2.00164280970882  -5.83499194852298
H  3.01674265655693  2.83584271196528  -4.01805735704731
Cl  -0.88797884461816  3.56617830384986  2.27172837155113
Cl  1.77185137805634  3.39723945500955  -6.99042877537902
N  1.53836743755930  -0.71966138000501  -1.00088696847700
C  0.96839012284627  -1.35847197167985  -2.07956736499082
O  0.16493234756805  -2.24305299096825  -1.91068973475410
N  1.46367167056030  -1.16504365063565  -3.29521454328120
H  0.79176136718518  -1.09747010815076  -5.97486915278448
H  2.55297330366129  0.21308671336898  1.42394171670081
Cl  1.32104701744630  1.58795208076116  3.23197061515886

