%nproc=8
%mem=4000MB
#opt=(noeigen,calcfc,ts,recalc=5,maxcyc=200) freq B3LYP/SVP em=GD3BJ

ts-3657.gjf

0 1
O  -1.09718907388215  3.52801666697810  -0.09951799631485
H  -1.12648375845326  4.00276291502117  -0.94710157127853
Cl  1.58816384937767  4.11189267913876  1.40446393730517
Cl  2.34370000762707  2.86749448378017  -1.28771456355135
C  0.48160285737895  2.69471492822873  1.38566759888478
C  -0.23635068699044  2.39488977029475  0.05481689903632
C  0.72795076005650  2.01338663655227  -1.03258371586446
C  1.32653642381624  0.66068957612115  -0.54026760074914
C  1.85507060106976  0.62174874223215  0.74775524678623
C  1.41595786955809  1.57402774623814  1.72473879565976
H  -0.87096407931308  1.48831608703368  0.15285671721645
H  0.19649910343037  2.04265130813710  -2.02635648530038
C  1.94251192454659  -0.28589257135706  -4.22303782242642
C  2.81449209792047  0.79619872730356  -3.91918223476745
C  1.69783572640155  -0.55895774671154  -5.64492690147266
C  3.02384101173277  1.69454825566360  -4.91868245911900
H  3.24921702232744  0.82684537452404  -2.90053567109271
C  1.68765240716536  0.48858268197847  -6.46035446776761
C  2.32021104955039  1.62664025161059  -6.12025061331129
H  3.69525714037780  2.53937077859442  -4.66443906626462
Cl  -0.84468507907125  2.79693694601783  2.57519411057546
Cl  2.05625565847279  3.10576568584181  -6.84714334019159
N  1.65113797768295  -0.06638640297873  -1.54422450602413
C  1.18949794344347  -1.13383313717142  -2.15856703843914
O  0.47143289670785  -1.91714704123055  -1.54611369138833
N  1.63538227663195  -1.28322637124983  -3.48883681086378
H  1.14456190102861  -1.48127456357486  -5.82759061053047
H  2.41462606348974  -0.27001692098105  1.05844310653563
Cl  1.58086186180650  1.53047122034450  3.53002377240863

