%nproc=8
%mem=4000MB
#opt=(noeigen,calcfc,ts,recalc=5,maxcyc=200) freq B3LYP/SVP em=GD3BJ

ts-3687.gjf

0 1
O  -0.45807264038969  3.90396482354027  0.69483760109917
H  0.27211424496781  4.58575785051095  0.57452814569411
Cl  1.51329187308019  3.37734031847227  3.05140104644252
Cl  1.81221203586747  3.39603743168990  -1.10976365785901
C  1.22219280959142  2.27434114775648  1.75036172228838
C  0.04830501596813  2.59185591399281  0.70729504475553
C  0.55767961405235  2.14575001183235  -0.71055496810439
C  1.18567469975639  0.80550078178517  -0.80177756103185
C  2.15928417538202  0.56975560078020  0.18419458341410
C  2.05383591169820  1.20597562051020  1.45860909128112
H  -0.79026657596059  2.00040459175237  1.00714092612224
H  -0.21884003252995  2.35209103423970  -1.44648463011314
C  2.55905039123799  -1.02296586654775  -4.03967211368552
C  3.62347605848067  -0.02816804055152  -3.93945189942187
C  1.70977128077770  -1.02297444083709  -5.25253371827144
C  3.68801826350905  1.01527596851215  -4.83464944699565
H  4.20498221311510  -0.00631802121614  -2.98653859008534
C  1.99652338295595  0.00554544337160  -6.07772836537504
C  2.92345632406200  0.99942457244226  -6.00766844734265
H  4.48513095643628  1.74649277503847  -4.63052496744798
Cl  -0.55756322472115  1.38169211198291  3.27351747675663
Cl  3.31513152761937  2.21886828714687  -7.27932759109280
N  1.07825373878138  -0.16692385830849  -1.73094220755671
C  1.98774710786430  -1.28609153138097  -1.66032127943138
O  2.23277611132662  -1.75244364973625  -0.56716380074807
N  2.33470921160464  -1.78465887641176  -2.84213780801478
H  1.06448030048312  -1.81537058941715  -5.60525597697296
H  2.83352300996258  -0.28110686517127  0.08014539604444
Cl  2.81585816088298  0.30691593042659  2.75602781977968

