%nproc=8
%mem=4000MB
#opt=(noeigen,calcfc,ts,recalc=5,maxcyc=200) freq B3LYP/SVP em=GD3BJ

ts-3707.gjf

0 1
O  -0.45769636678419  3.77300573743795  1.49788299931434
H  -0.14515516555921  4.43872313769185  0.86718658115162
Cl  1.27699954967587  3.23741411715388  3.67029705017987
Cl  1.62491088728586  3.29536072853791  -1.35205153644919
C  1.54229375862989  2.36580725619433  2.25286787444602
C  0.36587067861085  2.61602918854987  1.27566304239986
C  0.56181862576304  2.41612948140313  -0.23603084141833
C  1.16887435051620  1.07380834008954  -0.12930742136296
C  2.07083870441851  0.61057147325615  0.78567765067107
C  2.17180167012209  1.23376799053708  2.12931714570970
H  -0.36272345632025  1.79446988782811  1.49517564403523
H  -0.43646254099253  2.41455407589181  -0.65245043373107
C  1.97584179688362  -0.46934887678623  -3.77034306415368
C  2.91953549512739  0.70850986075290  -3.68645024787234
C  1.81441220936571  -0.96704756928592  -5.15673103094178
C  3.62179530761007  1.29186493285690  -4.73923246542194
H  3.09604316872250  1.07159766442618  -2.71308255956381
C  2.68648537918532  -0.45844602625983  -6.06383025406930
C  3.45108235689402  0.70811950582151  -5.93012963276661
H  4.21778337542459  2.15548334080792  -4.48763369786937
Cl  -0.76743103835492  -0.03308189256428  3.39932600346238
Cl  3.80324164892408  1.37280146814213  -7.60603063929440
N  0.70702711198233  0.32947041293979  -1.08511694027023
C  1.19779622197073  -0.87152942586075  -1.53173649690122
O  1.32423634595004  -1.74990955595794  -0.65811655322809
N  1.34770815949067  -1.11255553729944  -2.83501779301831
H  1.02144874824562  -1.69113847283322  -5.26251818703522
H  2.25198936215813  -0.44218371376726  0.77485979382409
Cl  2.97092399650743  0.40480863431789  3.37785916310101

