70
 energy: -143.097547298742 gnorm: 0.110942466479 xtb: 6.6.1 (8d0f1dd)
O     3.03547622    -2.28213647    -4.69022723
H     2.17322971    -2.03097115    -5.02606196
H     2.98506662    -2.73425246    -3.84619602
O    -0.56789725     0.68389465    -5.24579152
H    -0.63354320     0.46586392    -6.17718403
H     0.31332331     0.45804244    -4.94284073
O    -1.58885779     2.89576692     4.36268920
H    -1.85493301     2.86024530     5.28316778
H    -1.90589036     2.03988038     4.06894279
O     0.74676586     0.28119427     4.87065573
H     0.27269408     0.93473817     5.38783587
H     1.64216965     0.62281078     4.84084516
O    -4.39727801    -0.56460896    -1.71960039
H    -4.37133153     0.00028042    -2.49391684
H    -4.35985644     0.04768461    -0.98269176
O    -1.93945431    -1.75304374    -3.68662371
H    -1.41274063    -1.14457530    -4.20785001
H    -2.73260650    -1.86035186    -4.21457639
O     0.47049914    -4.90632285    -2.21409911
H     0.07394276    -4.03368834    -2.23837847
H     1.31163683    -4.84145864    -2.66975096
O    -1.75416123    -2.00197032    -1.12415972
H    -2.24770185    -1.45782519    -1.74032683
H    -2.32861562    -2.75836057    -0.99296347
O     1.90642094     0.36070960    -4.63201298
H     2.34336379    -0.05603182    -3.88720016
H     2.52102521     0.22413575    -5.35516372
O     0.60463942    -2.28897723    -2.32493974
H     0.28461985    -1.83843685    -1.54139703
H    -0.19422496    -2.20109644    -2.84784600
O    -2.96622938     1.30020327    -4.33663175
Cl    -2.98718942     2.64588211    -3.29266271
H    -2.02692395     1.18950913    -4.52646990
O     0.69816513     3.78293707     2.78796186
Cl     0.22975816     3.37285454     1.20253073
H    -0.07763496     3.64262597     3.34387023
O    -1.58413132    -1.08411099     4.31421333
Cl    -2.53785191    -0.34969841     5.51929383
H    -0.65705476    -0.81983972     4.34993277
O     2.79777661     2.18487379     4.31473682
Cl     3.16428837     3.60574155     5.17958639
H     2.49031838     2.57156739     3.48616844
C     5.18576092    -0.32922585     0.08220349
C     4.74282716    -1.34673949     0.91838418
C     3.44485602    -1.36954418     1.39213493
C     2.56090854    -0.40850096     0.89021499
C     2.92491587     0.50531668    -0.09838577
C     4.25672944     0.53095753    -0.49589880
H     5.43425499    -2.11185028     1.24605464
H     3.13739563    -2.09576217     2.13649440
C    -1.98219296     0.96830250     1.18429498
C    -2.01462583     1.81429353     0.07293331
C    -3.00002499     1.02905647     2.14042471
C    -2.97042559     2.82225772     0.06177373
H    -1.23863715     1.84350169    -0.67496673
C    -4.10545374     1.83358369     1.91720833
C    -4.04037064     2.81869637     0.94283688
H    -3.08649596     3.49432621    -0.77857549
H    -4.96850941     1.73935665     2.56300027
Cl     6.86257126    -0.18508352    -0.33341477
Cl    -5.42789053     3.82221062     0.61062063
N     1.28341864    -0.31185519     1.46311476
H     1.04440528    -0.82576654     2.29649490
C     0.18015506     0.04190935     0.70253977
O     0.20352949     0.21507913    -0.49274270
N    -0.90112753     0.14669301     1.55582858
H    -0.93689317    -0.42651222     2.38408255
H    -3.10642355     0.38850058     3.00978744
H     2.17770447     1.17947409    -0.48458759
Cl     4.65756228     1.72466911    -1.68742510
