70
 energy: -143.127779382204 gnorm: 0.106932194164 xtb: 6.6.1 (8d0f1dd)
O    -1.07617304    -1.27166469     2.67935941
H    -1.67510011    -1.21249048     3.42576600
H    -1.52075426    -1.81113883     2.02311717
O    -1.32670235     4.59947383    -4.49326107
H    -0.47179718     4.28483874    -4.79239432
H    -1.22543322     4.87557622    -3.58065486
O    -3.22326376    -1.82917948     4.63118108
H    -3.31112500    -0.90502492     4.87109223
H    -4.00607194    -2.28839676     4.94048547
O     1.70562128     1.97808957     3.26949569
H     2.09627666     1.57677010     2.49124764
H     1.74339933     2.93083456     3.16855872
O    -1.63807919    -1.35998120    -1.31458234
H    -1.02771494    -2.08971102    -1.43411919
H    -1.77815169    -1.06050145    -2.21459883
O     0.28754205    -3.68310264    -1.86950757
H     0.62992748    -3.23913334    -2.64732596
H     0.92736033    -3.73845021    -1.15753237
O    -2.59973947    -2.72489937     1.11350839
H    -2.59420455    -2.57052271     0.16721316
H    -3.15466772    -3.49678170     1.23837192
O     1.81217558    -1.79033697    -3.06161172
H     0.95656161    -1.48554947    -3.36880464
H     2.39300855    -1.07255260    -3.31998193
O     0.32926617     2.55396662    -3.00488920
H    -0.39853722     2.71362221    -2.40144002
H     0.97963297     3.25647165    -2.95152701
O    -0.91331962     0.06458790    -3.71368829
H    -0.14927677     0.64091482    -3.65517208
H    -1.72473677     0.54835394    -3.54964282
O    -2.49220156     2.31726366    -3.45145876
Cl    -3.03236272     3.26496681    -2.14331241
H    -2.24115652     2.98354540    -4.10232851
O     1.45899252     3.95408449     0.46229961
Cl     2.96038554     4.66003076     0.84781681
H     1.64265527     3.15497947    -0.04591911
O     1.34170941    -2.03519265     3.57026189
Cl     2.01599902    -1.15884272     4.86583440
H     0.37742518    -2.05371680     3.55028928
O    -0.64073781     0.76833764     4.27799242
Cl    -1.99738399     1.79818279     4.26845531
H     0.08844196     1.20198618     3.81882591
C     4.35390773    -2.11093075    -0.60092254
C     3.47194954    -2.87258975     0.15587845
C     2.27961996    -2.30552164     0.56388925
C     2.07225613    -0.96193341     0.23425046
C     2.92866335    -0.18812595    -0.54849096
C     4.12618008    -0.77903968    -0.93472413
H     3.77268662    -3.89005113     0.36839770
H     1.62921310    -2.84776008     1.24134321
C    -1.82500193     2.03965581     0.89982482
C    -1.46670474     3.31298086     0.45022063
C    -3.14116465     1.73270027     1.25668775
C    -2.48557776     4.24028000     0.27222173
H    -0.42165361     3.54641320     0.32474748
C    -4.15057305     2.67319059     1.13164790
C    -3.78131455     3.91827067     0.64430176
H    -2.24234289     5.25265067    -0.02320613
H    -5.14113953     2.45751946     1.50987413
Cl     5.83287784    -2.79165531    -1.19629634
Cl    -5.11784088     5.02961735     0.49861083
N     0.88858542    -0.41016252     0.74806705
H     0.47738883    -1.06505989     1.39442726
C     0.26064066     0.77904347     0.41297203
O     0.78008412     1.65278632    -0.23970417
N    -0.90297801     0.99974834     1.12398142
H    -1.20539173     0.15327342     1.57991363
H    -3.31265553     0.74976672     1.68313419
H     2.63228033     0.79438636    -0.87832667
Cl     5.36578850     0.04372309    -1.82454523
