70
 energy: -143.130978307713 gnorm: 0.104359343317 xtb: 6.6.1 (8d0f1dd)
O    -1.06090554    -3.43529454     0.83109670
H    -2.00792137    -3.54124100     0.93727762
H    -0.75810966    -3.41344892     1.74058892
O    -1.45145369     2.83957932    -3.38613624
H    -0.53290645     2.89825641    -3.11749752
H    -1.56677899     1.93063349    -3.66872361
O    -0.56419381     0.41593158     4.95756398
H    -0.71382658     1.36272856     4.98045777
H    -1.03872620    -0.00327681     5.67757905
O     2.26783508     4.84084625     4.01547815
H     2.43778111     4.35446299     4.82411196
H     2.69991523     4.41440283     3.27332506
O    -3.05577048    -0.42635673    -1.74377517
H    -2.39349016    -0.37777408    -2.43541358
H    -3.94863423    -0.14108025    -1.94564088
O    -1.18137342    -0.10419025    -3.52606961
H    -0.31552355    -0.17825290    -3.12090704
H    -1.24513259    -0.93108628    -4.00723193
O    -3.22270478    -2.83871089    -0.49312779
H    -2.91736185    -2.01786551    -0.88340461
H    -3.93624420    -3.17010977    -1.04119245
O    -1.01084771    -3.57328189    -3.70045864
H    -0.13224602    -3.32686353    -3.40605205
H    -1.41199357    -3.90401772    -2.89483322
O     2.17526950     1.97232942    -1.74967697
H     1.80906791     1.35991996    -1.10921647
H     2.00876468     2.86763979    -1.44962147
O     1.55418082    -0.64378765    -3.11711203
H     2.35003918    -1.17306780    -3.19333751
H     1.80290338     0.27208696    -2.98055043
O    -3.90793402     1.83906245    -2.53339643
Cl    -4.57271577     2.04742161    -4.08768530
H    -3.04820257     2.27651840    -2.54237116
O     2.46877935     4.01731417     1.30236304
Cl     1.73584243     5.24990028     0.38328764
H     1.99991524     3.21761069     1.03547751
O    -0.18617020    -1.59956325     3.07866025
Cl     1.50773112    -1.58168217     3.25626208
H    -0.44716046    -0.91355403     3.70464871
O    -0.20456545     3.44340837     4.39872223
Cl    -1.72176367     4.19366618     4.58946715
H     0.49884232     4.04798265     4.13358921
C     4.92178405    -2.15071818    -0.60675584
C     3.90676309    -3.00603328    -1.01771934
C     2.59185317    -2.79986820    -0.64597110
C     2.26583239    -1.66044161     0.09720341
C     3.27541479    -0.80796122     0.54320344
C     4.58940470    -1.02876109     0.14687102
H     4.21406281    -3.74479676    -1.74616309
H     1.86165363    -3.52330060    -0.99158603
C    -1.70172088     1.15359958     0.93339072
C    -1.29563444     2.48537617     0.81788138
C    -3.00551373     0.91058657     1.37489502
C    -2.19797116     3.52432100     1.00775404
H    -0.28985196     2.69753663     0.49268056
C    -3.95028928     1.91489920     1.50837775
C    -3.49894839     3.21986326     1.37630680
H    -1.84622339     4.54260678     0.90429975
H    -4.98205472     1.70796104     1.76022641
Cl     6.52744801    -2.42907654    -1.19799887
Cl    -4.55940307     4.60392683     1.42553911
N     0.93402049    -1.35308865     0.41555258
H     0.32311650    -2.14212895     0.27424990
C     0.46181521    -0.05292561     0.50164815
O     1.12653806     0.95373824     0.43835720
N    -0.90923030     0.02476318     0.65148843
H    -1.33993967    -0.83482744     0.95388130
H    -3.28198059    -0.13435466     1.47022576
H     3.10488133     0.08559466     1.12151233
Cl     5.73740839     0.17996459     0.62270605
