%nproc=8
%mem=4000MB
#opt=(noeigen,calcfc,ts,recalc=5,maxcyc=200) freq B3LYP/SVP em=GD3BJ

ts-5234.gjf

0 2
O  -1.04751402511212  -0.94886254047482  3.36018479429955
O  -1.21597015601980  3.40227506293692  0.62136626609423
H  -0.67157938441502  3.82272309667067  1.26406629056622
C  -2.83072729522199  1.78814158354705  1.93725005223512
C  -3.63859071620033  2.00416210484434  3.11273519580791
C  -3.19459528843125  1.76694662096796  4.40057352585718
C  -2.17454492896190  0.75190840601866  4.51095657114396
C  -1.97391389165351  0.05623718362451  3.14526555831262
C  -1.71734150954550  0.96670057278852  1.96129236326436
H  -4.26548073722774  2.89200374350542  3.07242746399668
H  -3.64672718949488  2.28702151260714  5.23809471360325
Cl  -3.54376716634104  2.40357729368312  0.48176105137826
N  -1.67063775825678  -0.09182833784447  5.38359546574776
C  -1.04591229818414  -1.14271617741008  4.73091770906670
O  -0.69492605137383  -2.20059426575207  5.16443581003793
H  -2.96754029748605  -0.42626798111122  2.93134971252854
Cl  -0.41839914294174  0.76875712677746  0.87158158151007

