%nproc=8
%mem=4000MB
#opt=(noeigen,calcfc,ts,recalc=5,maxcyc=200) freq B3LYP/SVP em=GD3BJ

ts-5274.gjf

0 2
O  -0.91047926221778  -1.13983731183843  2.24779219611469
O  -1.98208032560161  3.58105798825745  3.72150956556983
H  -1.50686014766653  3.84596944725358  2.90200908879648
C  -3.06956604224104  1.76514008409889  2.41194395118570
C  -2.46487857547735  2.47259979671236  3.74796182829670
C  -1.64058809634434  1.50911661858023  4.59712574639767
C  -1.10204142779132  0.45627877098048  3.94622433181088
C  -1.90910393942014  -0.28826274942544  2.82224227862736
C  -2.63872983974592  0.63971464169568  1.96267069589228
H  -3.49332915309693  2.45604077890472  4.30936192319056
H  -1.53873888218557  1.73218972533301  5.65021790925719
Cl  -3.70615412591234  3.04159896481165  1.38987318123667
N  -0.01476236169916  -0.32166064201274  4.12567811845927
C  0.08014129618368  -1.26079368167124  3.21039166349215
O  0.88340613341243  -2.16296866337026  3.06126548755763
H  -2.64042635741406  -0.94610405834973  3.36830455560286
Cl  -3.09149483443275  -0.07936180214478  0.35900592103216

