%nproc=8
%mem=4000MB
#opt=(noeigen,calcfc,ts,recalc=5,maxcyc=200) freq B3LYP/SVP em=GD3BJ

ts-5284.gjf

0 2
O  -0.84611693440078  -1.10231165347881  1.99457366948291
O  -2.49617463045757  3.61374509041052  4.02080416667988
H  -1.93217530370527  3.81983934964425  4.74031069238406
C  -2.90607139403201  1.73866027742326  2.54554575925279
C  -2.32974638341802  2.05494046604126  3.89799329667942
C  -1.12977344370654  1.44596321221462  4.38179513188885
C  -1.04844448764042  0.21093224457853  3.84648406945083
C  -1.82181095776909  -0.50356948414221  2.82424174605313
C  -2.68496979222595  0.46204582979781  2.18209125751631
H  -3.08976974462128  1.74802228020242  4.66775464264928
H  -0.52357929677277  1.73611925894017  5.20205104690722
Cl  -3.68057042645820  3.06464264264164  1.79908922137634
N  0.13397104994432  -0.37021447176824  3.79907345649196
C  0.27874920680403  -1.17401225262636  2.66111661713383
O  1.16162421550509  -1.84155467304042  2.19365497077303
H  -2.33071289152732  -1.32714427728093  3.42026895273411
Cl  -3.51135190073689  -0.38133471377505  0.87490690115618

