%nproc=8
%mem=4000MB
#opt=(noeigen,calcfc,ts,recalc=5,maxcyc=200) freq B3LYP/SVP em=GD3BJ

ts-3380.gjf

0 2
O  0.37764304859202  -1.73029714758329  2.35499138442796
H  1.14063506038427  -1.22169869954702  2.04579722770300
O  0.41147114582448  -5.37936286218861  1.15699234293371
Cl  0.14816645223797  -7.40656076481438  1.53862223587628
H  1.25921736499245  -5.49446633794725  0.70937415506526
C  1.26327949909259  -0.40279740588753  -5.19281389878476
C  0.26588738243141  -1.31129485440420  -4.95228035385612
C  -0.32174310573171  -1.51273209001436  -3.68317256815470
C  0.03945544094110  -0.56188161314994  -2.72000305310214
C  1.10794447720302  0.40490677931860  -3.01622289575265
C  1.82085007624753  0.32931924931139  -4.17792499607480
H  -0.07623346436673  -1.89555963451434  -5.78471558854758
H  -1.03029682021868  -2.31022957924389  -3.47089864208867
C  -2.35838638483459  -2.21685031346640  0.62207188813372
C  0.02577714771151  -2.69385199097237  1.37996204389228
C  -3.55315706449587  -2.88631229393835  0.38988314400640
C  -1.49107152765726  -2.95328006204789  1.40452316099846
H  0.56132237906585  -3.65345023147659  1.59951123972584
C  -3.56911660045027  -3.86376642743223  1.31889502806285
C  -2.21404361726676  -3.95313638026132  1.97466957506789
H  -4.24799202707574  -4.53560468094435  1.76998331587877
Cl  1.91819754936802  -0.12222170972144  -6.69246562541479
Cl  -1.29823762483744  -4.82458859448924  3.17731039229047
N  -0.42637101607797  -0.64730807644910  -1.54617740822360
C  -0.68000928376426  -1.36705276961707  -0.57436946590705
O  0.32088800424903  -2.20810970542753  -0.02206523497588
N  -1.85093245275455  -1.16173676971755  -0.03649261292556
H  -2.43050779901900  -0.45798652562074  -0.49633236481557
H  -4.30933671024158  -2.41886927252557  -0.23595908575076
H  1.34668348915210  1.03412454199870  -2.17785217974002
Cl  3.37498768712308  1.11359683405802  -4.26080117340172

