%nproc=8
%mem=4000MB
#opt=(noeigen,calcfc,ts,recalc=5,maxcyc=200) freq B3LYP/SVP em=GD3BJ

ts-3400.gjf

0 2
O  0.66405171141733  -2.23068439079106  2.21798184467457
H  0.53391237492744  -1.31697859140271  2.25783352388602
O  0.39414682010662  -5.45007498859151  0.92922212731753
Cl  0.30365598742808  -7.81057631430372  2.29760907947247
H  0.94434336601846  -5.83431483232823  0.19350460910377
C  1.65063580750541  0.17968533596776  -5.75245048693179
C  0.49046404956223  -0.61125073773805  -5.52481280000998
C  -0.00337407035189  -0.65869976076928  -4.25930892015053
C  0.61991070639744  -0.17730466341588  -3.04344898536133
C  1.86023653609614  0.50176913496944  -3.34948461826734
C  2.30606276576926  0.72390290672469  -4.64984198977282
H  0.03826118707310  -1.19019550328091  -6.32444412431348
H  -0.86687099507773  -1.31063228821541  -4.12949608918745
C  -2.24562348859173  -2.27662061530391  0.33423356558272
C  0.10921757177007  -2.65323867140325  1.01483229123118
C  -3.56029836366119  -2.51519517150099  0.88944097903357
C  -1.36417934442940  -2.82536760662770  1.30672675373889
H  0.47755710869961  -3.58205221236244  0.57240069737843
C  -3.44762695587053  -3.30367904189146  2.05079211897144
C  -2.05632327526196  -3.52856204624696  2.31696936985819
H  -4.23448681872107  -3.86540688933620  2.53368825933062
Cl  2.35444237344822  0.20335348569892  -7.25302185428223
Cl  -1.74133892084102  -4.81425985138476  3.46514457201805
N  0.00356447030033  -0.49939428380240  -1.87262876144528
C  -0.37627364359391  -1.10112404265017  -0.82155414875119
O  0.44911145210104  -1.50111551658043  0.15316005694138
N  -1.72707245798025  -1.49563326092016  -0.72425275274509
H  -2.28984340751552  -1.16242690750680  -1.50244360407779
H  -4.25657443530724  -1.73289914040246  0.65361372697827
H  2.43128846624650  0.77635298425091  -2.43415039935350
Cl  3.47460837095206  1.82438278389763  -4.96186371324164

