%nproc=8
%mem=4000MB
#opt=(noeigen,calcfc,ts,recalc=5,maxcyc=200) freq B3LYP/SVP em=GD3BJ

ts-3410.gjf

0 2
O  1.04967298045339  -2.38570463168294  2.18894243656909
H  1.23039796431780  -3.11942371039065  2.73590504665719
O  0.91890310876556  -5.15354487538354  0.59701514901343
Cl  0.44290940086321  -7.91325688486945  2.73416897895796
H  1.04328617318444  -5.01383072233411  1.59350904503269
C  1.66738420615301  0.22171410917228  -5.65396011163291
C  0.42373955091528  -0.51356141064618  -5.60173110302599
C  -0.15303967450593  -0.91365184072862  -4.40187993414235
C  0.44320002909993  -0.30231059022266  -3.24152808087474
C  1.03659186348006  1.05089506649172  -3.52673988883383
C  1.86397917833576  1.07050439468255  -4.65110257075401
H  -0.07451253630717  -0.75311304505514  -6.51851919608249
H  -0.93375746224353  -1.64998799699409  -4.24075590769930
C  -1.84625859198933  -1.99944491384248  0.08135604186321
C  0.31347726117104  -2.68487663321771  1.08355710197152
C  -3.19628340075894  -1.73673111213771  0.54904765998995
C  -1.14070106147212  -2.68227362300232  1.07247364997416
H  0.53700943867075  -4.26542701308814  0.26289561624428
C  -3.34774206778241  -2.56969738399925  1.66014191042054
C  -2.20997710673492  -3.26955010710215  1.89993005075418
H  -4.29741676684531  -2.59206931074696  2.13212074633973
Cl  2.42333151157221  0.42975647165837  -7.19534219183414
Cl  -2.11765661975249  -4.63508517785493  2.88057112385886
N  0.60560095230559  -0.85346815540429  -2.02472865180481
C  -0.00617676645355  -1.31460536633633  -0.99520653176420
O  0.71260455760079  -1.85715128781433  0.05746716701475
N  -1.39828647242511  -1.28221421919004  -0.97167664930657
H  -1.79139471034718  -0.36321636907518  -1.18035110213150
H  -3.56655904312574  -0.68516357661250  0.48037984617224
H  1.11839672458193  1.84451481814516  -2.82477136234194
Cl  3.54901775552639  1.98286807156171  -4.79367020506019

