%nproc=8
%mem=4000MB
#opt=(noeigen,calcfc,ts,recalc=5,maxcyc=200) freq B3LYP/SVP em=GD3BJ

ts-1290.gjf

0 2
O  1.30014128125356  -4.82072264284059  -0.33160541170257
H  0.60832290953692  -5.51555531010439  -0.11564565653960
C  1.25794057547192  5.10720208908436  1.28822566962601
C  1.60933076688585  4.47001425880353  0.09886274337019
C  0.87483869193045  3.54177590878231  -0.53034961101706
C  -0.05691263507606  2.98766332510393  0.25705694901889
C  -0.78029651915458  3.68969351840976  1.19370554274320
C  -0.11959303577790  4.80178264504430  1.60933306922678
H  2.60948852124655  4.70767452158245  -0.27244760401280
H  1.33481788368231  3.08743441543538  -1.38004851593839
C  -0.37796848490672  -0.96587861041835  -1.12204744738659
C  -0.55491221013060  -2.09103807967018  -1.94045266661473
C  0.61881950108423  -1.23278637658223  -0.13382219033690
C  0.00806603488385  -3.35443842617635  -1.74424742714295
H  -0.99601638300775  -1.92046838325589  -2.92234242570948
C  1.23328065350893  -2.47333030462965  0.09640203611811
C  0.80957579180036  -3.58544109023119  -0.66622415155359
H  -0.12700506325526  -4.08661108537710  -2.47603619055714
H  2.00271228823950  -2.64666052752476  0.80625961863721
Cl  2.58440388074352  5.51723334309498  2.33425347313803
N  -0.32709146099583  1.62370975364353  0.05924469860644
H  0.20831670206958  0.90292468668070  0.57163885618249
C  -0.65875723607730  1.35999950365197  -1.18735450796313
O  -0.97052717528476  2.24860031117538  -2.05485371348649
N  -1.16009063411240  0.11124743221102  -1.59903677375130
H  1.19852237504059  -0.47164941204757  0.30542936453437
H  -1.77450636134807  3.43193752654222  1.54716626291210
Cl  -0.91511464642804  5.57876062967974  2.87414371023876

