%nproc=8
%mem=4000MB
#opt=(noeigen,calcfc,ts,recalc=5,maxcyc=200) freq B3LYP/SVP em=GD3BJ

ts-1300.gjf

0 2
O  0.59496138235519  -4.76141151737209  -0.51593791304634
H  1.59503677814528  -4.77420938115396  -0.23345908634794
C  1.42038329829468  4.74128364436713  1.69751598089428
C  1.86392604154864  4.15064429491578  0.42784321825230
C  1.23987475145040  3.02067231863745  -0.07960071782853
C  -0.02352443452103  2.77715856301405  0.50238551339974
C  -0.51878295324359  3.61115697656461  1.51657866909538
C  0.13512203846763  4.54417941092668  2.28986269650161
H  2.83644165493659  4.52288998878084  0.16451809153254
H  1.77446956624017  2.49310169150330  -0.87402735696242
C  -0.60321507259966  -0.91993820285561  -1.37120346991483
C  -0.94328662424161  -2.07280916110927  -2.20350194616268
C  0.17388391012179  -1.19756819970940  -0.29803754975548
C  -0.64802026250437  -3.33499466870508  -1.81484327330971
H  -1.29522463777069  -1.91741142994432  -3.20303953571997
C  0.75813711604893  -2.42986771299853  -0.08678071703822
C  0.20701117168640  -3.52567391120044  -0.71301111749219
H  -0.79650583987616  -4.25975123382874  -2.41466323498617
H  1.57206915742191  -2.53648510131089  0.60382014398736
Cl  2.73644848910548  5.33761377894738  2.67785255431239
N  -1.01834777421353  1.90605495214229  0.11462773845261
H  -1.82207766266786  1.50136102823067  0.59581367858552
C  -0.76967058190582  1.47838881626457  -1.46026509934311
O  -1.14508506133726  2.43578490207691  -2.12454789430055
N  -0.65454936428353  0.30279005626580  -1.93407014933061
H  0.47513637509794  -0.34090851493747  0.35011886224418
H  -1.56815113607777  3.42762687263273  1.67873356651092
Cl  -0.56504928968594  5.57063381158287  3.52309591355691

