%nproc=8
%mem=4000MB
#opt=(noeigen,calcfc,ts,recalc=5,maxcyc=200) freq B3LYP/SVP em=GD3BJ

ts-1340.gjf

0 2
O  -1.43606216931994  -4.40496804142749  -1.34086503571086
H  -2.29305748897187  -4.79907641106827  -1.04634268987543
C  1.95419540460628  3.04076825698623  3.02583932061549
C  2.35079061213768  2.42829078998111  1.83134507031222
C  1.48242219629051  1.73495392640705  1.06255036265497
C  0.11203277580705  2.04115178144089  1.26703529340132
C  -0.26600622802902  2.78645727066368  2.42800438780888
C  0.57681448262518  3.32123626473827  3.32902806451902
H  3.37564193908309  2.30739416761150  1.55644781146593
H  1.70967084502575  1.09860283600717  0.22068362932517
C  -1.29578057600343  -0.45365937234286  -2.04990522786240
C  -2.51354561351042  -1.06515801905015  -2.21975257740309
C  -0.23521908312250  -1.07298615953747  -1.48760343857039
C  -2.77193388444420  -2.31686426465286  -1.85192660476611
H  -3.22301598647420  -0.47530225863554  -2.77978113628291
C  -0.35298872444666  -2.41383816835581  -1.36820110754766
C  -1.63582278632320  -3.06637875770530  -1.48965906673752
H  -3.68595349293299  -2.80687697245305  -2.19007762454527
H  0.49157435218388  -3.14143558634814  -1.30283263319543
Cl  3.17883571717587  3.86385609913809  3.82218419268643
N  -0.75505411644425  1.30399954356430  0.63390915296290
H  -1.70081729895962  1.48816089517933  0.90601075925869
C  -0.66569214206712  1.87150155820781  -2.47895636164304
O  -0.35491306882055  2.98039419920260  -2.31527547696636
N  -1.11522687360227  0.81525405862054  -2.48946949290460
H  0.72599967315606  -0.62123910638412  -1.30748310399334
H  -1.32624192810578  3.00501961981376  2.42317519234537
Cl  -0.11172388908936  3.92158372220566  4.85544770473472

