70
 energy: -143.150755746831 gnorm: 0.098032024085 xtb: 6.6.1 (8d0f1dd)
O    -0.91714836    -0.18421868     0.71725328
H    -0.31158229    -0.38355853     0.00108892
H    -1.53633463     0.42303597     0.30836596
O    -3.45180121    -0.54972619    -2.78073393
H    -4.06833359    -0.64013449    -3.50946774
H    -3.48465443    -1.31385475    -2.20248980
O     0.85916176    -0.30602381     3.07517511
H     0.96669503    -1.09989112     3.60200515
H     0.33413183    -0.60213794     2.32952213
O    -2.52230158     1.30341714    -0.91992893
H    -2.23997929     1.23127795    -1.83339981
H    -3.37114842     0.85925647    -0.95890075
O    -0.87328573    -1.24007794    -3.54211739
H    -1.20264816    -0.34034038    -3.57861282
H    -1.67281768    -1.76896250    -3.56129815
O     3.22436806    -3.19223983    -2.10878770
H     3.19758321    -4.06179405    -2.51189565
H     4.11182079    -3.13653316    -1.75009022
O    -0.68024112    -3.74302279    -0.92507662
H    -0.63285996    -2.81870776    -0.67460867
H     0.05456719    -4.01735343    -1.47656374
O    -2.86787176    -1.89744951     1.92945227
H    -2.29332835    -1.37621455     1.36593460
H    -2.51597885    -1.91038571     2.82127094
O     1.01100528    -0.94326612    -1.25889040
H     1.93090741    -1.08613901    -1.48846828
H     0.55734507    -1.53581682    -1.86089862
O    -3.60044187    -2.73885407    -1.15306172
H    -2.88474496    -3.34337220    -0.94891937
H    -3.81815171    -2.41831106    -0.27602529
O    -0.54572540     1.72100450    -2.89022188
Cl    -1.07505240     3.20377663    -3.54011569
H     0.04084778     1.89536323    -2.14448912
O     1.94494755     2.71591847     4.15665545
Cl     3.00026266     1.91724985     5.22885091
H     1.04869673     2.49824216     4.43938956
O     2.99783987    -2.49189524     1.60478140
Cl     1.41356272    -3.11734289     1.59807486
H     3.13109624    -1.88140551     0.86984525
O    -0.66953818     1.78011711     3.98920769
Cl    -1.80010087     1.25799768     5.15126627
H    -0.29984431     0.93052064     3.72069261
C     4.52000856    -0.13693214    -0.36557131
C     4.46752331     0.03537483     1.01220882
C     3.41542194     0.75902477     1.54051023
C     2.52391006     1.44975498     0.71286951
C     2.78438550     1.47942014    -0.65686330
C     3.69430437     0.59063372    -1.21767325
H     5.18201793    -0.48191186     1.63890397
H     3.32670827     0.76106806     2.62130679
C    -1.79969318     3.60536846     1.13941583
C    -1.99612516     4.09129240    -0.15564010
C    -2.88576644     3.25305823     1.94575293
C    -3.28262106     4.28331929    -0.64320908
H    -1.16299775     4.31689019    -0.80168219
C    -4.16032275     3.49281100     1.45883696
C    -4.35909380     3.98598726     0.17768523
H    -3.37490724     4.66453187    -1.65191887
H    -5.04006243     3.19203437     2.01235531
Cl     5.86174432    -1.02209479    -1.01475594
Cl    -5.96683981     4.26521600    -0.43859715
N     1.45822146     2.16688000     1.27817868
H     1.49247940     2.14963822     2.28529528
C     0.38578997     2.75770785     0.62885031
O     0.27174746     2.77301527    -0.57364472
N    -0.49078906     3.29277214     1.55273819
H    -0.38293929     2.99609322     2.50992056
H    -2.78945491     2.85697387     2.95136981
H     2.14491382     2.03539597    -1.32314536
Cl     3.82321369     0.35205621    -2.92992684
