%nproc=8
%mem=4000MB
#opt=(noeigen,calcfc,ts,recalc=5,maxcyc=200) freq B3LYP/SVP em=GD3BJ

ts-5624.gjf

0 2
Cl  -1.18194634862728  -2.96992467789155  2.27798786309139
O  -5.67275838031726  0.64738266771443  2.41414353670860
H  -3.04465892646958  2.17111640608179  1.93336319223500
C  -3.98134553948217  -1.47247058885901  2.51798131829867
C  -4.19656429255298  -1.48062171038073  3.93247951602003
C  -4.19028414257215  -2.43771648292742  1.59657353981034
C  -4.49090500994033  -2.67440258326656  4.46672560689896
H  -3.82524478175306  -0.63246039472963  4.48521026743849
C  -4.31053727201762  -3.66130240868555  2.24909362836741
C  -4.59743263245450  -3.76723842181012  3.59515648879432
H  -4.72716679562185  -2.55478310890194  5.49955803869727
H  -4.11810202338693  -4.57917969079380  1.70175034115297
Cl  -4.78193762577400  -5.44853292721382  4.07705937916126
H  -5.80086287877766  -0.35193114972324  2.55585497783949
C  -4.32490207469683  0.75927723768109  2.20179522657367
O  -3.96381456127031  1.97416439267839  1.65420910737872
N  -3.50397526001749  -0.22814800539645  2.18861403647693
H  -4.05385805040085  -2.47531212171721  0.53580858473919

