%nproc=8
%mem=4000MB
#opt=(noeigen,calcfc,ts,recalc=5,maxcyc=200) freq B3LYP/SVP em=GD3BJ

ts-5644.gjf

0 2
Cl  -1.63906955086832  -1.02810041497220  1.63359901474038
O  -5.95985196932605  -0.14026637364260  0.92163534365683
H  -3.04769625734689  1.12272390667445  1.15098547944408
C  -4.33409163714910  -2.00521087688286  3.01348315319887
C  -3.48457576926591  -2.20206798882180  4.11259147959274
C  -5.00953984416497  -3.09232994698238  2.45082847832018
C  -3.49460872196586  -3.28557384487014  4.88550107395939
H  -3.13090795847307  -1.23203913067118  4.41897422989833
C  -4.59624684097118  -4.38173058379807  3.04919456959668
C  -4.08698576182108  -4.40895359113793  4.28631828025206
H  -3.00352580702589  -3.27532638601758  5.84538227114006
H  -5.17512275736508  -5.27612740593814  2.81560929248306
Cl  -4.43565847372397  -5.82712642872967  5.20776045913451
H  -6.19946361045390  -0.98235744782121  0.55720668557715
C  -4.70150178705538  0.01828442720403  1.47835022487878
O  -3.99165245250017  1.09140760160675  0.90157100177988
N  -4.29299792838673  -0.73458165969780  2.45999740903601
H  -5.58067553478721  -3.04824105482853  1.47314471163611

