%nproc=8
%mem=4000MB
#opt=(noeigen,calcfc,ts,recalc=5,maxcyc=200) freq B3LYP/SVP em=GD3BJ

ts-5684.gjf

0 2
Cl  -1.01947499115437  0.88768488227189  0.62716061486972
O  -7.02449148233072  -2.67290937710069  0.59738310134940
H  -2.03223730333725  1.40353002635833  -0.03712381472118
C  -4.65591311903481  -2.66170021704745  2.50051891201849
C  -4.03650977135069  -2.14656264468472  3.60844161335360
C  -4.86150776417027  -4.04583999268640  2.42231952224082
C  -3.49565390196107  -2.99273419588625  4.58261789800985
H  -3.55165235382252  -1.18454149808755  3.39742274244151
C  -4.24637900146003  -4.93031728516115  3.30910287844954
C  -3.63721067526012  -4.34358912244209  4.42184528183168
H  -3.02777908142651  -2.48427621292927  5.41093431740222
H  -4.31982016057130  -5.95655513503285  2.99961846941909
Cl  -2.83947396835555  -5.36363871033792  5.47637131199849
H  -6.72219773032603  -3.45674564405345  1.03001867213628
C  -5.98522800488926  -1.91260810893028  0.52824941080840
O  -6.06817553431727  -1.07562286869006  -0.40354608920559
N  -5.09484503171751  -1.78756709602951  1.58269383902847
H  -5.26622334797467  -4.47468413032736  1.54079429044965

