%nproc=8
%mem=4000MB
#opt=(noeigen,calcfc,ts,recalc=5,maxcyc=200) freq B3LYP/SVP em=GD3BJ

ts-5742.gjf

0 1
Cl  -0.74518243851756  0.89601658629021  -0.19191726559844
C  -0.03824848669832  3.46373025041483  -1.19805980767930
C  0.54893045388530  4.78171843800106  -0.88987143566067
C  -0.37083796584077  3.28933507082379  -2.56871677387348
C  0.96107901145469  5.61083962645586  -1.91965526538760
H  0.73641328256069  5.19521221826582  0.10756905308736
C  0.15632705452473  4.03176704670085  -3.64013478447353
C  0.89330909398026  5.20865297943713  -3.27788529635931
H  1.37443017866075  6.59655317496227  -1.69918234237091
H  0.04192330035130  3.71705477419212  -4.64692562676859
Cl  1.71243819622002  5.37093235852707  -4.81178520017207
N  -0.54702775918212  2.75003849487023  -0.12590576957160
H  -0.10628555020038  2.92894274500877  0.75547694361683
H  -1.08766186227469  2.47581747867131  -2.71864031198894

