%nproc=8
%mem=4000MB
#opt=(noeigen,calcfc,ts,recalc=5,maxcyc=200) freq B3LYP/SVP em=GD3BJ

ts-5802.gjf

0 1
Cl  -1.44995691075979  0.80194895652557  -0.92392338261324
C  2.08704296388203  2.28960895008456  -1.32077942777687
C  2.89994310461689  3.21285640776497  -0.61047073850049
C  1.04618320815194  2.77613810586892  -2.19566748474980
C  2.94188000413210  4.55230108394873  -1.00345194786662
H  3.28051278910307  2.92835503458681  0.36252871200222
C  1.17275221140967  4.07646261469512  -2.67156043808186
C  2.25364236310075  4.86365699463609  -2.19786138038968
H  3.57191416613133  5.26948150812774  -0.49741382725880
H  0.61536606233911  4.37527846167265  -3.52633449196021
Cl  2.79869550935471  6.32939705963873  -2.83111973746504
N  2.52718225935765  1.09546597942323  -1.07903958128247
H  3.37120138621774  1.12700309783501  -0.46588510405757
H  0.20443983940163  2.09216116458225  -2.29126349918684

