70
 energy: -143.042643116244 gnorm: 0.095584072787 xtb: 6.6.1 (8d0f1dd)
O    -1.56970956     1.94739938    -3.44285622
H    -1.71469033     0.99963778    -3.45101402
H    -2.08963853     2.18240380    -2.67228146
O     3.67918065    -0.66003389    -4.18522549
H     3.38755560     0.13177809    -4.64055768
H     4.35300006    -0.44647758    -3.53738356
O    -0.48482349     2.00230201     4.19495505
H    -0.84939595     2.69685828     3.64357758
H    -0.35981992     2.27541941     5.10551496
O    -1.08317811    -3.65326331     4.62138744
H    -0.13338148    -3.78307732     4.64071757
H    -1.49248530    -4.11692572     3.88870520
O    -2.09513631    -5.27931474     0.50458005
H    -1.75023248    -5.89800183    -0.14164501
H    -2.58857476    -4.57810383     0.07544153
O     1.00318707    -0.79559400    -3.01718397
H     0.17861072    -1.28415402    -2.99033385
H     1.24877098    -0.79439968    -2.09034711
O    -2.73453796    -0.65408454    -3.27604689
H    -3.33545907    -0.24465521    -2.65106778
H    -3.20077314    -1.36566129    -3.71833849
O     2.41683765    -3.30749417    -0.12148996
H     1.51195004    -3.29659125    -0.43834594
H     2.70734622    -3.87809888     0.59219873
O     1.05267157     1.90959872    -3.74160371
H     0.09856309     1.97005280    -3.81482199
H     1.26657734     0.97562515    -3.77731801
O     3.60969196    -1.57740407    -1.83078958
H     4.56469949    -1.60412624    -1.91193686
H     3.24141797    -1.49078552    -2.71181727
O    -4.49352802    -0.09716198    -1.12160948
Cl    -5.33400851    -1.45440371    -0.52776635
H    -5.13153389     0.35889571    -1.68334457
O    -1.45832510     4.57185845     2.11944049
Cl     0.07433545     5.01942786     1.52631493
H    -1.80430962     3.98317265     1.43802223
O    -4.17829220    -2.90413001     2.64348797
Cl    -5.23633290    -1.64808409     3.09522055
H    -3.85810032    -3.17601548     3.51190123
O     4.29222631     4.05696833    -0.03581314
Cl     4.33200169     3.92063487     1.66153536
H     4.10796650     3.15666730    -0.32923171
C     5.53937115    -0.10761871     1.10651907
C     4.90721626    -0.64625936     2.22050691
C     3.57241298    -0.36746383     2.44469917
C     2.87691247     0.46698831     1.56330283
C     3.52017285     1.03206518     0.46248510
C     4.86159183     0.74392868     0.23893655
H     5.42683039    -1.28061457     2.92650232
H     3.15363635    -0.84208076     3.32524468
C    -1.84210078     1.75330118     0.85469636
C    -1.87216833     2.45952089    -0.35038754
C    -3.00376669     1.73805602     1.63197179
C    -2.97292647     3.21298320    -0.73806734
H    -0.99436842     2.44940463    -0.97627172
C    -4.09887215     2.51647524     1.29452565
C    -4.05096273     3.27042116     0.13118872
H    -3.00884644     3.93581830    -1.54277499
H    -5.09772508     2.57258777     1.70675771
Cl     7.14926331    -0.61350295     0.70960996
Cl    -5.33641515     4.38492284    -0.25367233
N     1.49500577     0.64084763     1.73547081
H     1.10268253     0.33607613     2.61236964
C     0.58258626     1.14350063     0.82133471
O     0.84516781     1.58528863    -0.27187553
N    -0.72406998     0.99096058     1.24280176
H    -0.88456803     0.52039461     2.11953211
H    -2.97060375     1.05770405     2.47662882
H     2.98426015     1.65808609    -0.23239643
Cl     5.55466252     1.34372047    -1.23254298
