%nproc=8
%mem=4000MB
#opt=(noeigen,calcfc,ts,recalc=5,maxcyc=200) freq B3LYP/SVP em=GD3BJ

ts-2420.gjf

0 2
Cl  -4.10241068791533  0.77850859251782  -3.49762400033280
O  -3.88038085164682  0.24725884985357  -0.66891984953968
H  -3.30900817381119  0.29122192736515  -1.49135846233448
C  1.02625532228054  -1.81341080154206  2.09050072584488
C  -0.21995627861805  -1.95170544283532  1.43907468087540
C  -0.91912816142035  -0.73839001149589  1.49473360123387
C  -2.03176695006951  -0.39773659238251  0.68656234609368
C  0.05123532446533  0.19635512160147  2.30772946774288
C  1.15169773709594  -0.49112766315026  2.71609143958636
H  -0.33690292715370  -2.74595380396087  0.72889665121580
Cl  1.57676790099385  -3.35800062635310  2.28521631482462
N  -3.11189651482981  0.06459760087392  0.47960926131341
H  -0.30793970304212  1.16926574612928  2.50554847255686
Cl  2.20867138280673  -0.02338051922501  4.12236203790923

