%nproc=8
%mem=4000MB
#opt=(noeigen,calcfc,ts,recalc=5,maxcyc=200) freq B3LYP/SVP em=GD3BJ

ts-2440.gjf

0 2
Cl  -4.54177682392662  0.30650508902909  -3.50528552306318
O  -3.25035626727164  1.40345813186726  -0.92723614261513
H  -3.80003273433301  0.31407785355746  -2.35487943761010
C  0.17797170799237  -1.71318829403845  2.43383123897977
C  -0.86209439034152  -1.75397735712952  1.53359661695545
C  -1.61518531263509  -0.67136505630713  1.76011407984824
C  -2.33097798899986  0.03889866191513  0.73861737331539
C  -1.20728537788590  -0.07576120907957  2.99856079513132
C  -0.02171734066309  -0.64699224699351  3.28670017417354
H  -0.97996259559108  -2.51483244279571  0.78234464765970
Cl  1.19924276307442  -2.94569563316736  2.83119473830109
N  -2.78837051740910  0.94543326129008  0.07901841810688
H  -1.57776996501953  0.90812894734219  3.20626339399237
Cl  1.21749611076269  -0.48740310741712  4.58419504735560

