%nproc=8
%mem=4000MB
#opt=(noeigen,calcfc,ts,recalc=5,maxcyc=200) freq B3LYP/SVP em=GD3BJ

ts-2450.gjf

0 2
Cl  -4.67590861040883  0.14507763617615  -3.51486743425952
O  -2.74180848031198  1.66263067923332  -0.53858798079653
H  -4.48902541687350  1.33581667407423  -3.52336521288955
C  -0.38542398288405  -1.86937195298072  2.50213801520438
C  -1.06855968211782  -1.52436739375214  1.40439055803812
C  -1.89598247449835  -0.29942885425028  1.94952249017948
C  -2.95186198449257  0.17943057613323  1.11286026962101
C  -1.56666426598498  -0.01581490460063  3.29242418193023
C  -0.62211458547062  -0.89867989601350  3.60420578704840
H  -1.35424636438841  -2.06948766023026  0.51803945602582
Cl  0.93087842768173  -2.98978861442691  3.03660269514408
N  -3.07860219652175  0.74877499954419  0.04878084936908
H  -1.65863920054344  0.94703776360326  3.69555849916932
Cl  0.38351684519734  -0.55432538830305  4.97104493481671

