%nproc=8
%mem=4000MB
#opt=(noeigen,calcfc,ts,recalc=5,maxcyc=200) freq B3LYP/SVP em=GD3BJ

ts-2146.gjf

0 2
O  -2.06682229695221  0.30776773414895  2.17252682446959
C  -0.35010041765773  -4.41575914868529  0.91923574423396
C  -0.62889296288218  -3.08398082684711  0.63430322803381
C  -1.35533678571119  -2.19794535890587  1.35481538353524
C  -1.54432445975162  -2.52553896391834  2.72859458862245
C  -1.53551608873008  -3.89450011886476  3.04630507995383
C  -1.03133899495514  -4.77128793322679  2.11233382100673
H  -0.20038445824827  -2.71889928629288  -0.28942370109561
H  -1.50975264512388  -1.19679633650113  1.01753930775991
C  0.05998250835360  1.00932318590210  3.13301539866820
C  1.26680750544878  1.47901296488960  2.71990442441779
C  -1.18142391125589  1.32676678278630  2.29821930799099
C  1.15027593050021  2.64567125045828  2.02269171586518
H  2.23392113028389  1.26271794294456  3.14466072767489
C  -1.19266228431829  2.53267725578719  1.55020831666866
C  -0.00026318427747  3.16636312020897  1.52639298729802
H  1.95471240084719  3.35058692643380  2.04619000871513
H  -2.06885265061916  2.67681710945345  0.94913626849729
Cl  -0.11024058693915  -5.38206139502883  -0.48063239064423
Cl  -0.10860974512598  4.74006252999436  0.86060882452053
N  -1.82549786710903  -1.81431314806681  3.76555170685972
C  -1.78265598674999  -0.53131416872243  3.93673311001896
O  -2.58525263539285  0.14843305456897  4.58726235990256
N  -0.26313703563048  0.15306121282509  4.04213807661178
H  0.10985933043610  -0.23023331289769  4.88581040194491
H  -1.72724575711869  2.08867339487590  3.01161417411457
H  -1.60419317147010  -4.39387101880015  3.98947555957984
Cl  -0.79913843371415  -6.38647845918343  2.49283340205907

