%nproc=8
%mem=4000MB
#opt=(noeigen,calcfc,ts,recalc=5,maxcyc=200) freq B3LYP/SVP em=GD3BJ

ts-2162.gjf

0 1
O  -0.27224645405880  -6.74841414647516  2.84476923581866
Cl  -0.84274000735713  -7.04403916208884  -3.02562656519007
H  0.59259535494214  -7.04720652519585  2.53013694237190
C  1.54453641876018  -2.67113341839539  3.21390468756873
C  0.80812387181825  -2.78196951401334  1.92584253359432
C  0.94692653070495  -4.19513627056893  1.60883894650593
C  -0.16806539482031  -5.03445855034212  1.24963920179923
C  2.11970376376803  -4.77987134626728  2.17413365959992
C  2.35443378094420  -3.77706934006177  3.21033867159625
H  0.16370425927981  -2.03505113270788  1.40400873421095
Cl  1.42291576370240  -1.50311458082050  4.46793037943486
N  -0.60834147643176  -6.09581597983870  1.59858978831571
H  -1.46332964278068  -6.43575549643692  1.48245220264284
H  2.32818510222433  -5.76491473912758  2.46437299783521
Cl  3.66269170070096  -4.48459686976594  4.29683801104571

