%nproc=8
%mem=4000MB
#opt=(noeigen,calcfc,ts,recalc=5,maxcyc=200) freq B3LYP/SVP em=GD3BJ

ts-2192.gjf

0 1
O  -1.70332738589894  -6.86933879795242  0.06409440094895
Cl  -1.47647263909666  -6.24416015725810  -2.27464342621423
H  -1.52198316950914  -7.35226540655247  0.86788032150044
C  1.21794921256255  -3.14041061982417  3.76370031780645
C  0.10753172041318  -3.80935133179691  3.39749342358867
C  0.35587245483913  -4.70800941015984  2.32210702051986
C  -0.49630395693133  -5.46592052610437  1.52333148798796
C  1.91280143013909  -4.79023642441104  2.34976173337930
C  2.29069563144802  -3.68931258034616  2.97814806811752
H  -0.88848140634705  -3.45453365317392  3.69835608600343
Cl  1.37036824303871  -2.02063100472440  4.91428289075815
N  -0.90222830258249  -5.72950425214706  0.40181688919044
H  -1.06638037454881  -5.43593155683508  -1.50995762786713
H  2.56487976848796  -5.42917033641181  1.80024499400729
Cl  4.09084488620792  -3.18648258086321  3.56360604113132

