%nproc=8
%mem=4000MB
#opt=(noeigen,calcfc,ts,recalc=5,maxcyc=200) freq B3LYP/SVP em=GD3BJ

ts-5640.gjf

0 2
O  -1.21859453079524  -6.27340487731874  0.67816644146358
H  -1.37505715181744  -6.81442680036153  -0.12088881457853
Cl  3.15349604923157  -4.64895927387353  -3.97266377522790
C  0.06475581575143  -0.27292864229906  -5.10788395296451
C  1.33680975687403  0.21049482221675  -4.81006247467343
C  2.10017282387056  -0.20996033126596  -3.71713551729197
C  1.63989800829133  -1.40265015130972  -3.08806648968983
C  0.39161194718255  -2.03275744585951  -3.46064048093559
C  -0.19532245358236  -1.56557288834628  -4.63310941003346
H  1.59456393699246  1.18284442282847  -5.18674028991883
H  3.09707446800572  0.20827558764626  -3.62574752797938
C  0.92298723075690  -3.19199451062214  1.06172619438771
C  -0.51709905249606  -5.14201197329600  0.14178498309337
C  1.13715266846022  -2.36892870624132  2.25529183592910
C  0.09050501182255  -4.47359694818032  1.17476335824685
C  0.26052237583564  -2.99519705182492  3.23640528936638
C  -0.07334319939225  -4.22300205076743  2.61341368150254
H  -0.10803364603595  -2.84357646017847  4.24998803130345
Cl  -0.98214427670358  0.08818302990136  -6.45309169516825
Cl  -0.14846712090735  -5.37872268337820  3.81105033795957
N  2.30023979923704  -1.71336175813994  -1.94725848073581
C  1.82217374666419  -2.30315749790286  -1.03340043665918
O  -0.25114858024040  -5.05897914173255  -1.17219117382480
N  1.55411127539322  -2.87160901563728  -0.03164225441102
H  -1.02155410786286  -5.15791414866757  -1.84205525622732
H  2.05530882945144  -1.83328512059225  2.47177767171295
H  0.22024523074595  -2.96689325810740  -2.96197446693757
Cl  -1.49602706156225  -2.28455967481221  -5.48799356156252

