%nproc=8
%mem=4000MB
#opt=(noeigen,calcfc,ts,recalc=5,maxcyc=200) freq B3LYP/SVP em=GD3BJ

ts-5670.gjf

0 2
O  -0.39482238162337  -7.28529906995312  0.11710108958996
H  -0.51380849813019  -8.08573970374547  -0.39729864562277
Cl  2.54825329287666  -6.37179448586852  -3.15787811210261
C  -0.04409468956490  -0.69133194924205  -5.29521440647609
C  1.32019817275935  -0.43067459519658  -5.15533511448236
C  2.02254000380296  -1.01256834757094  -4.08647906476322
C  1.46160712335426  -2.20712447027179  -3.55673413212399
C  -0.02915434619893  -2.46488505605801  -3.65976099547204
C  -0.73661733096590  -1.70652652438203  -4.53287370190304
H  1.81069896759046  0.42105623469533  -5.55131533679085
H  2.99975373181560  -0.66704791347708  -3.75981499167713
C  1.28889882525046  -4.09071084523334  0.70427249642446
C  0.50304653157807  -6.34330727079517  -0.10130046618791
C  1.04964146321467  -3.32000782920754  1.89610558072214
C  0.37334881725797  -5.21204935321749  0.86387641551640
C  0.27201365788947  -4.08986534228058  2.73144727586136
C  -0.30886792144685  -5.23460171613052  2.14815431126949
H  0.08112786697476  -3.58945801229054  3.68021797333732
Cl  -0.96132184119719  0.66114278125811  -6.10078245859538
Cl  -1.53653736462824  -5.96956293652042  3.03599635624192
N  2.01623042348382  -2.71129443189415  -2.46169221316717
C  2.07482365649841  -3.14784998161532  -1.35584692960145
O  1.41937605371349  -6.19396443747071  -0.95079092987207
N  2.03761502615559  -3.69705182359100  -0.28398671445248
H  1.79084545539734  -6.78224101438067  -2.13150877598880
H  1.13510389115677  -2.28053440432800  2.15757429592341
H  -0.49195837623433  -3.17142736811682  -3.00121886022934
Cl  -2.52847554675584  -1.75583619318206  -4.35234539833456

