%nproc=8
%mem=4000MB
#opt=(noeigen,calcfc,ts,recalc=5,maxcyc=200) freq B3LYP/SVP em=GD3BJ

ts-5680.gjf

0 2
O  -0.36419074760585  -7.46564192273601  -0.14238128387408
H  -0.12273469690813  -8.17793296412370  -0.74249200886587
Cl  2.43998223722279  -6.75867450090980  -3.36041850008401
C  -0.20030976766634  -0.54254716163443  -4.84347436191121
C  1.22334872353325  -0.63806400731103  -5.09034820702546
C  1.95263813392083  -1.46510206545288  -4.26251410632211
C  1.21849439446176  -2.25310378304290  -3.35346349688414
C  -0.15891042809230  -2.18761518499196  -3.13352584546192
C  -0.89587237422809  -1.39826218162621  -4.00268099955508
H  1.69470561594674  -0.02572011692979  -5.88764070837442
H  3.02114531544411  -1.54827808983145  -4.21893801142075
C  1.25612881905137  -4.34673699971254  0.82093210553142
C  0.53731613366271  -6.55974009239153  -0.03816997769701
C  1.27237085655598  -3.33080625589820  1.89788278481775
C  0.35734834625027  -5.39897658681243  0.96895211317866
C  0.13009733330404  -3.84320277542824  2.68475397179199
C  -0.33297623798264  -5.03254819251105  2.10368987549909
H  -0.58602514876223  -3.28474786643785  3.25655161199493
Cl  -1.22406909430083  0.49551549070565  -5.94919575665869
Cl  -1.69374878276453  -6.06439323352242  2.44544089366490
N  2.01578396620943  -2.80573130374434  -2.44132652554851
C  1.82607061239013  -3.51840944270170  -1.44541704453854
O  1.57803947585146  -6.47673264915184  -0.59930471329455
N  1.67721539354504  -4.07846466977680  -0.41818188117284
H  3.66624105168826  -6.25891986189927  -3.37796296963712
H  1.84091075899001  -2.41849469398637  1.70177908561439
H  -0.42647855818450  -2.91395115506845  -2.39239945584413
Cl  -2.67214707401169  -1.28481416784294  -4.69019301674791

