%nproc=8
%mem=4000MB
#opt=(noeigen,calcfc,ts,recalc=5,maxcyc=200) freq B3LYP/SVP em=GD3BJ

ts-5690.gjf

0 2
O  -0.60693009107313  -7.24305527006037  0.01458251970471
H  -0.37988448780039  -8.10047026674526  -0.39454095285797
Cl  2.44713283540642  -6.91303170854444  -3.67105781228647
C  -0.32381527440909  -0.11767859602690  -4.93381547359514
C  1.09495485648662  0.05576190887171  -4.57639541934835
C  1.70980021038522  -0.81853343965591  -3.67413551662254
C  0.88172176319467  -1.79245216642010  -3.07913010345241
C  -0.48988098709457  -1.85374862467780  -3.14100084709913
C  -0.96178337460959  -1.07659070069892  -4.16036975377970
H  1.58952029223878  0.82622046841989  -5.12868454242414
H  2.78866719906887  -0.87898467124995  -3.64109109948399
C  1.26696130487851  -4.22605466294221  0.80523438476710
C  0.68396918847989  -6.69527355857048  0.08667001124083
C  0.93088234652479  -3.38581726759332  1.87954495488151
C  0.63568109773041  -5.43769930542651  0.91972634834313
C  -0.20597225067827  -4.02513420673030  2.47795639871165
C  -0.38452599928086  -5.21181322999523  1.88650012587480
H  -0.73491579453382  -3.24144041855745  2.97377023146927
Cl  -1.08153082451508  0.83710928579240  -6.24356500866392
Cl  -1.97532315044855  -6.09525496820124  2.15848887956263
N  1.25064884770001  -2.92691167397827  -2.36953240383712
C  1.71752182185228  -3.51158317621665  -1.44465051544975
O  1.66195756628360  -7.23624386924768  -0.49528276567408
N  1.96744313815474  -3.91934204947727  -0.33971591109318
H  1.20489102084869  -6.97756323718070  -3.80356371018238
H  1.20146356382338  -2.40390996551844  2.18276166413470
H  -0.96864551158824  -2.51874325878637  -2.44155479237669
Cl  -2.67143948106198  -1.46213528943782  -4.12406445336240

