%nproc=8
%mem=4000MB
#opt=(noeigen,calcfc,ts,recalc=5,maxcyc=200) freq B3LYP/SVP em=GD3BJ

ts-5700.gjf

0 2
O  -0.76480590925112  -7.34907730126665  -0.11308010242756
H  -0.82939358037794  -8.13074101482698  -0.70551077290810
Cl  2.30923379155308  -6.89323807748846  -3.93254622595756
C  -0.55505005064490  0.09340322297347  -4.65176767304626
C  0.74897405570430  0.44999447122383  -4.27587583842072
C  1.32450794577588  -0.42142656100342  -3.38570143572279
C  0.75802052575408  -1.61031061100516  -2.84608391495843
C  -0.54402310142468  -1.88406510901684  -3.33122497769964
C  -1.29423027920869  -0.97913535963428  -4.10453420887631
H  1.19965418507705  1.29326215735578  -4.73879544883681
H  2.32292396207892  -0.03625337343324  -3.19946295063120
C  1.22534072940724  -4.28686442084001  0.73396849069115
C  0.41284572314640  -6.80922226840129  0.02414501163114
C  0.71110238606197  -3.36185909289979  1.75999064567882
C  0.36774012721831  -5.46445998173930  0.73727303462617
C  -0.42306701574483  -4.03080612446687  2.32567528403418
C  -0.56289317901048  -5.18322985885778  1.61767249414389
H  -0.94127657384922  -3.65300678300781  3.18982899605953
Cl  -0.80421021274983  1.05254864431346  -6.18578169239845
Cl  -1.96430198081313  -6.13977461345048  1.97532271335052
N  1.63629856999438  -2.49149754293640  -2.14263654037434
C  1.74598429116182  -2.95563745265504  -1.00483619690674
O  1.46509044057897  -7.33642426014116  -0.23180155712909
N  2.29378430608284  -3.70028811178920  -0.17029511178865
H  2.83720244188829  -6.57123542146934  -2.73551800657081
H  1.17258791784367  -2.43523872277561  1.99866019886520
H  -0.99665186780278  -2.82442643424564  -3.06355308638413
Cl  -3.04609974024311  -1.22876248582955  -4.02174924944191

