70
 energy: -143.146878339004 gnorm: 0.107406749566 xtb: 6.6.1 (8d0f1dd)
O    -3.28459706    -1.12317787     3.00306233
H    -4.03608849    -1.26073105     3.58243939
H    -3.55333046    -1.47189871     2.15129075
O    -1.82220712    -0.43269405    -0.73876682
H    -2.58901603    -0.20058839    -1.26552090
H    -2.23125413    -0.85779062     0.01708471
O    -0.64414961    -0.25994505     3.11364177
H    -0.00807094    -0.96489772     2.98028410
H    -1.53676327    -0.60863158     3.08206761
O    -3.42321310    -2.70714591     0.91047597
H    -3.81832404    -2.72378756     0.03700624
H    -2.56726066    -3.06293500     0.66532704
O     1.09125509    -2.85914064    -2.30746654
H     1.09588651    -2.02375913    -2.77805709
H     1.86419924    -3.37428404    -2.54521162
O    -0.67728201    -2.81694134    -0.28841502
H    -0.65071235    -1.97759865    -0.75116321
H    -0.24816673    -3.40128313    -0.91590542
O    -1.95465835    -2.43147512    -3.63129672
H    -1.06596362    -2.49912605    -3.27776811
H    -2.20157946    -1.50680698    -3.68923964
O    -3.89547001    -2.70232250    -1.91763482
H    -3.16730618    -2.92373215    -2.50081007
H    -4.78109579    -2.91150606    -2.21970391
O     0.39461856    -0.14264286    -3.06263186
H    -0.47689841    -0.19463544    -2.66628158
H     0.53724257     0.74129761    -3.40562668
O    -3.74599698    -0.09089448    -2.82873452
H    -4.35079667    -0.83483616    -2.81841753
H    -4.14306110     0.78171857    -2.81373941
O    -1.44075811     2.20194085    -2.77817527
Cl    -1.43345956     3.75475556    -3.47808629
H    -0.99692982     2.20856305    -1.92169468
O     1.85634266     5.14672851     3.43295485
Cl     3.42699530     4.50895796     3.26723322
H     1.23724773     4.43836529     3.21957698
O     0.96643847    -2.27772421     1.85737460
Cl     0.86613654    -3.73891066     2.72687878
H     0.33934641    -2.49566078     1.15748509
O     0.68690274     1.94601380     4.02885249
Cl     1.09644487     2.59703373     5.54859232
H     0.19215535     1.13750345     4.20808446
C     5.28976150    -0.10575294    -0.16382640
C     5.16719199     0.36488810     1.13778654
C     3.97901082     0.95157591     1.52984757
C     2.86308449     0.97441881     0.68659343
C     2.99219619     0.51008438    -0.62207736
C     4.22803401     0.04058891    -1.05182192
H     6.05785187     0.41456655     1.75023403
H     4.02663289     1.38290820     2.52366853
C    -1.87199668     2.49056452     0.91053893
C    -1.94869660     3.70595080     0.22582662
C    -3.08424515     1.93006633     1.32303467
C    -3.17483512     4.28622551    -0.07339775
H    -1.11816567     4.20459403    -0.24739573
C    -4.32276891     2.47895339     1.03347582
C    -4.35121768     3.67245252     0.32719465
H    -3.21837329     5.17459860    -0.69002807
H    -5.21682674     1.93846372     1.31511856
Cl     6.78210990    -0.81986115    -0.68166250
Cl    -5.94456079     4.34767828     0.10822456
N     1.60644793     1.33311756     1.19819370
H     1.47990373     1.21740399     2.19134612
C     0.48402023     1.67367499     0.45995861
O     0.55709808     2.04658770    -0.68670183
N    -0.68731311     1.78109078     1.18431600
H    -0.61839929     1.25865405     2.04347772
H    -3.00235426     0.95519162     1.79243567
H     2.20154677     0.80333872    -1.29352383
Cl     4.34190689    -0.64287137    -2.64092993
