70
 energy: -143.138250562031 gnorm: 0.115012960895 xtb: 6.6.1 (8d0f1dd)
O     1.25149310    -4.17542935    -0.83364377
H     1.11196557    -4.82815767    -0.14530095
H     2.13708938    -3.82299852    -0.72947848
O    -1.97719491     1.26712369    -1.76653970
H    -1.34927964     1.56894023    -1.10777723
H    -2.13894264     0.33005112    -1.64377674
O    -0.46843617     0.99599965     3.09738821
H    -1.14783949     0.57875162     2.56479660
H     0.15906311     0.28798262     3.25325641
O    -1.97707996    -0.66179368     1.52324277
H    -2.81504693    -0.54244397     1.07279191
H    -1.38823975    -1.12264183     0.92305559
O     0.30889217    -2.45785985    -3.60318561
H     0.99520495    -2.95794159    -4.04841837
H     0.49338909    -1.52078989    -3.68803186
O    -1.83644271    -4.49522281    -3.50115048
H    -1.59407613    -5.19802950    -2.89562659
H    -1.15007857    -3.84007611    -3.36321377
O    -0.01996467    -1.38006033    -0.22082992
H    -0.06780921    -0.56289739    -0.72012249
H     0.06120027    -2.06524231    -0.88662005
O    -3.74165800    -3.14419591    -1.88466366
H    -4.66240021    -3.36644832    -2.03357915
H    -3.17629098    -3.45597814    -2.59352788
O     0.19116059     0.42685925    -3.54355092
H     0.49247652     1.05550577    -4.20184482
H    -0.20162145     0.95487858    -2.84623057
O    -3.59454709    -0.60801338    -0.66072308
H    -3.62207350    -1.40318410    -1.19577837
H    -4.51406764    -0.34655836    -0.73462514
O    -3.40821618     2.83077997    -4.04093425
Cl    -4.79390358     1.88071868    -4.32096320
H    -2.68510482     2.45542895    -3.52439967
O     2.70356983     2.19758531     4.48141027
Cl     3.63199247     1.19608289     5.49934394
H     2.05826017     2.61381129     5.06529250
O     1.58469531    -0.81901077     2.06395376
Cl     2.80888045    -1.92374876     2.49067209
H     1.13097148    -1.16741397     1.28720668
O     0.00064142     2.73563855     5.00626912
Cl    -0.85409641     4.05519604     4.35101946
H    -0.26103259     1.96306562     4.49124887
C     5.13192040    -0.28851351     0.11220449
C     5.21262806     0.36772390     1.33431792
C     4.10171380     1.09827738     1.71094772
C     2.90274238     1.21380685     0.99960300
C     2.88073880     0.52102456    -0.21054740
C     3.91227624    -0.34440077    -0.55604842
H     6.13924094     0.45081204     1.88687546
H     4.19896693     1.63190821     2.64997672
C    -1.45730755     3.37769184     0.87740633
C    -1.66733884     3.91777078    -0.39384466
C    -2.47787960     3.06764732     1.78082332
C    -2.98762906     4.17454117    -0.74107982
H    -0.84708750     4.19188301    -1.03759636
C    -3.77391245     3.40119418     1.42290198
C    -3.99626464     4.00585432     0.19447690
H    -3.24748101     4.65190927    -1.67699214
H    -4.57574471     3.27741670     2.13881763
Cl     6.36939730    -1.46641071    -0.18176422
Cl    -5.55106431     4.61778624    -0.30627975
N     1.81535582     1.99387794     1.42223114
H     1.83210301     2.19220192     2.41023006
C     0.72747225     2.35432360     0.64287084
O     0.44391080     1.83509914    -0.41033056
N    -0.11146765     3.25400947     1.27136000
H    -0.06825324     3.21808008     2.27768482
H    -2.17099156     2.61640516     2.71870620
H     1.97385323     0.42161444    -0.78469124
Cl     3.77186292    -1.15177409    -2.08372040
