%nproc=8
%mem=4000MB
#opt=(noeigen,calcfc,ts,recalc=5,maxcyc=200) freq B3LYP/SVP em=GD3BJ

ts-5650.gjf

0 2
O  -1.04529439025049  -6.44619465194679  0.86306403308876
H  -1.52176613984226  -7.13499618955680  0.34215030709928
Cl  3.01184753068713  -5.31758126165900  -3.69881350916767
C  0.07704269588356  -0.55783342268723  -5.21769893609912
C  1.28472896106705  0.07799315934535  -4.87339522560452
C  2.03751528060701  -0.39579580522488  -3.77554711254875
C  1.83219704022202  -1.70813844034105  -3.40505624744132
C  0.65059127770754  -2.34774749404803  -3.84213565478190
C  -0.24786653513759  -1.87341226009849  -4.83746319927868
H  1.71782860409815  1.03794073868177  -5.15055193958523
H  2.75027438091379  0.20025885779713  -3.23285192984464
C  0.91559572509100  -3.29093388337808  0.79852248020927
C  -0.14650410906602  -5.44300286960722  0.37171750455724
C  0.93997504316848  -2.57484710585342  1.99553936470173
C  0.32166686552064  -4.62252849565537  1.32008761780502
C  0.62949884182225  -3.40088005674115  3.17772344321072
C  0.17953436782601  -4.70847728021862  2.78482112867898
H  0.99938143566763  -2.87598326347456  4.02474938192356
Cl  -0.80329653150511  0.41575211506416  -6.32677916397746
Cl  -0.83401063281097  -5.99101839103992  3.40916624923709
N  2.51901913221698  -2.27273208451082  -2.36732557188018
C  2.02917938787257  -2.76595128675083  -1.35939122043437
O  0.54978128944483  -5.54145669983092  -0.84835088310968
N  1.33566248303783  -2.97708878838484  -0.41298010925775
H  0.97246278019447  -6.46008368763346  -0.96145403488400
H  1.29655954457141  -1.55216741472205  2.14818163232415
H  0.45248356484767  -3.28102375161654  -3.34926868310760
Cl  -1.97838208199160  -2.19367225942763  -4.76571272737033

