%nproc=8
%mem=4000MB
#opt=(noeigen,calcfc,ts,recalc=5,maxcyc=200) freq B3LYP/SVP em=GD3BJ

ts-5663.gjf

0 1
O  -4.06786284149037  1.75862532044928  1.17748434630990
H  -4.05704970046087  1.59242407564752  2.11830647779019
Cl  -4.92785097964223  1.65930029166021  -1.19192686974333
Cl  -1.11102477823863  1.49876943449964  2.65775214332083
C  -3.34872674784883  1.35134832120047  -0.91893997563710
C  -3.03883108307686  1.94489614303394  0.34797681372279
C  -1.58966935485323  2.08864053914505  0.52146671077233
C  -0.60929411149715  1.59983733486062  -0.36214267257351
C  -1.11752670938951  0.77327675164938  -1.42247447568866
C  -2.44494302684619  0.59109516691873  -1.66630885019266
H  -1.36876737779572  3.08531739632350  0.88615077112774
C  3.07206818359914  0.71630858601461  1.80033157986434
C  3.19137240335948  -0.20176840895012  2.80277476973993
C  4.30007136268154  1.11014158991773  1.14525498852474
C  4.32823627172155  -1.04012669255688  2.81689051117927
H  2.34267232176044  -0.46859835249649  3.41535673343575
C  5.29974930455184  0.20523057729244  0.98855512417662
C  5.43089066343971  -0.80722137832567  1.95250613498389
H  4.23049229118591  -2.05697787066867  3.26840144180896
Cl  6.63704525843680  0.36275423212345  -0.11776410185702
Cl  6.95386733335929  -1.71785415910143  1.76990673622253
N  0.75436123810793  1.67718601391713  -0.23111477682872
C  1.01981649569459  0.80779577320996  0.74241043028759
O  0.70792645159694  -0.38398420925632  0.64989098450226
N  1.89426225273690  1.27533111240208  1.66925292509396
H  -0.46802992676383  -0.04571650503529  -1.70787824163893
Cl  -2.81371057735606  -0.78120587736077  -2.74899994915154

