%nproc=8
%mem=4000MB
#opt=(noeigen,calcfc,ts,recalc=5,maxcyc=200) freq B3LYP/SVP em=GD3BJ

ts-5673.gjf

0 1
O  -4.00689358574223  2.31231691295908  1.18103531175727
H  -3.51037312659677  2.54772989397320  2.03280825942060
Cl  -4.98948803303173  1.67882445417373  -1.75155888160529
Cl  -1.34225979342008  0.57769837773737  3.21178348154307
C  -3.58600852906279  1.21345016203387  -0.97963536098452
C  -3.23677660076975  1.99749679629261  0.19838298087418
C  -1.89954409386330  2.42770977745490  0.26017482692877
C  -0.72379586826187  2.05784232817474  -0.37179435461349
C  -1.07317288080428  1.04354350285386  -1.43824657282290
C  -2.40913975388515  0.83774660956112  -1.72721881883215
H  -1.67828654734123  3.11383083775268  1.05680230967633
C  3.20422549592794  0.80828742421248  1.58155704436187
C  3.16060053793468  -0.07879771539864  2.67126529750032
C  4.37377998727985  1.12403074763253  0.83316473714100
C  4.32704857860301  -0.79794225435825  2.88113243730638
H  2.21788694918245  -0.38187148795733  3.14915496796962
C  5.46702128759375  0.29093382994352  0.98752385332823
C  5.46534356000305  -0.58045262306015  2.07768747732242
H  4.30786657243262  -1.63144416460279  3.52374514843139
Cl  6.75931872733766  0.57065012112123  -0.11701974805535
Cl  6.65827915536060  -1.84592487818696  2.22701494371229
N  0.42972357967121  2.37343199722716  0.37625020755479
C  0.86966312750383  1.42934372752257  1.17339874924418
O  0.29429958694426  0.27332288673805  1.28865374150166
N  2.18146355117977  1.62982211880272  1.39231708856405
H  -0.30907893376609  0.64095141288824  -2.13011662401055
Cl  -2.68663705660720  0.07416870319303  -3.38032423666871

