%nproc=8
%mem=4000MB
#opt=(noeigen,calcfc,ts,recalc=5,maxcyc=200) freq B3LYP/SVP em=GD3BJ

ts-1421.gjf

0 1
O  1.03894421178085  0.81170777193439  -4.04952960467026
H  0.02311546055689  1.38640396085804  -4.50464566164950
C  -2.68622839360171  -2.65548069325989  -0.79882782884111
C  -2.12086713442020  -1.42101421741606  -0.57295328226032
C  -0.98713335959343  -1.24318192967134  0.21216724572896
C  -0.21413938117619  -2.46129620481424  0.45190354544826
C  -0.81255592180122  -3.68840279385395  0.05989894253912
C  -2.14043565389087  -3.74373813475166  -0.23708275748175
H  -3.14186391468824  -1.00178349165260  -0.91430311187712
H  -0.47564368780905  -0.33690148355425  0.41822958723009
Cl  -4.24086934168455  -2.95274474708634  -1.63709443426222
N  0.89415232222323  -2.53766624985372  1.06695337067619
H  1.13248647650180  -1.59918404627441  1.47208394771190
H  -0.34004818697225  -4.59260439149982  0.38307840265703
Cl  -3.13550183767160  -4.83261610470511  0.48029545222974

