%nproc=8
%mem=4000MB
#opt=(noeigen,calcfc,ts,recalc=5,maxcyc=200) freq B3LYP/SVP em=GD3BJ

ts-1451.gjf

0 1
O  -1.62148349611929  1.91692519366242  0.12099668708185
H  -1.76637766718960  1.26972352463075  -0.56393659930142
C  -2.77487747947246  -3.72055727356179  -0.30860117423339
C  -2.72295618949446  -2.27786175860021  -0.50351433504149
C  -1.56642974312828  -1.58724243054194  -0.59873641048227
C  -0.30042707675245  -2.15116137063709  -0.79121873463318
C  -0.36639035626660  -3.28849270888597  0.00126492287409
C  -1.49474820490636  -4.11315464772104  -0.02862409990726
H  -3.56256361428033  -1.65293946438461  -0.65454863095496
H  -2.09412813763340  1.57293766305815  0.88020525604457
Cl  -4.25034766909925  -4.69120705277423  -0.51714845223816
N  0.79939227870467  -1.54063615243853  -1.23720028870452
H  0.92725003595405  -0.51176148741039  -1.15405850066020
H  0.48892704452403  -3.84961611913948  0.33836216520262
Cl  -1.18705514728027  -5.68105674233162  0.13653300743617

