%nproc=8
%mem=4000MB
#opt=(noeigen,calcfc,ts,recalc=5,maxcyc=200) freq B3LYP/SVP em=GD3BJ

ts-1461.gjf

0 1
O  -2.08354674135308  2.34995643393615  0.98184130666584
H  -2.51038490518390  3.39091643954834  1.20379121606219
C  -2.55244924256549  -3.94831579452687  -0.47026332485310
C  -2.97232732884373  -2.69377959230913  -0.79828539325068
C  -2.03742569930146  -1.68734852836304  -1.12229335135739
C  -0.66280556421701  -2.03605446291218  -0.92236875825053
C  -0.25027186645305  -3.39582787966917  -0.60759455204881
C  -1.20537175238556  -4.43993513054206  -0.43928966773263
H  -3.98868573259282  -2.45130736768953  -0.42950436650219
H  -2.37778876221022  1.88206289072594  0.09745425223747
Cl  -3.77108935339566  -4.96680287722607  0.15650398530223
N  0.28020321476065  -1.04836726074336  -0.92700013274369
H  0.16504105023851  -0.05169140072667  -1.17970159483092
H  0.83820590046079  -3.47330462303398  -0.57780080086080
Cl  -0.78184941097266  -6.06322365011824  0.09650883819807

