70
 energy: -143.134138428994 gnorm: 0.095868723641 xtb: 6.6.1 (8d0f1dd)
O    -2.40161237    -1.62470067     2.39835742
H    -3.08749053    -1.09227081     2.80508537
H    -2.87321136    -2.21250591     1.80555216
O     0.37319705     1.38752542    -2.69266538
H     0.46529973     2.10407478    -3.32307232
H     0.63248990     1.73782154    -1.83861742
O    -4.24057359     0.19429779     3.56454204
H    -3.72286377     0.24310677     4.37010572
H    -4.17566025     1.07975071     3.20246783
O     1.28270610     2.04322408     3.56834626
H     2.09029582     2.50293140     3.33211120
H     1.47514342     1.31374779     4.16009847
O    -0.59819972    -1.16457783    -1.61827279
H     0.15506866    -1.55335756    -1.17019215
H    -0.21771584    -0.72576415    -2.38117034
O     1.93280373    -2.46407918    -2.40652665
H     1.33134080    -2.15741966    -3.08736457
H     1.67967842    -3.38865817    -2.42703811
O    -2.33994760    -2.82796903    -0.01294150
H    -1.84183399    -2.14942254    -0.47206559
H    -3.01558188    -3.13947404    -0.61777333
O     0.50330821    -1.79926998    -4.49390786
H    -0.37788421    -2.17598081    -4.46346047
H     0.62491704    -1.12841385    -5.16807391
O     0.16740510     4.10872666    -1.78865888
H    -0.54411826     4.20688873    -2.42382604
H    -0.27737036     4.27658652    -0.95599108
O    -2.49953423    -2.07209419    -3.98049851
H    -2.54544447    -1.21242158    -3.55836868
H    -3.25342536    -2.55059024    -3.63117347
O    -2.34901974     0.92879403    -2.90229486
Cl    -2.93952938     2.41352376    -2.31234723
H    -1.39395179     1.06337465    -2.92017453
O     3.08584366     3.66371539     1.14550378
Cl     2.39403233     4.63829035     2.35907924
H     2.33788766     3.11292042     0.88516974
O     0.01388335    -2.07039766     2.98732393
Cl     0.13628723    -2.01986259     4.68544858
H    -0.94671793    -2.02319248     2.91247094
O    -1.33272131     2.43014143     4.34968970
Cl    -0.93283657     4.05292033     4.67808224
H    -0.57514018     2.12095512     3.83874671
C     4.78550243    -1.87176639    -1.13841043
C     4.27190601    -2.45134722     0.01529122
C     3.10607650    -2.00389945     0.60717051
C     2.47190622    -0.84483836     0.14750051
C     3.07731285    -0.11872171    -0.87774733
C     4.12324718    -0.72418137    -1.56465468
H     4.73402022    -3.33584301     0.43356463
H     2.65989744    -2.56122420     1.42344800
C    -1.59781459     1.77637936     1.14862557
C    -1.23909288     3.12300802     1.04969343
C    -2.92276390     1.35852131     0.99447885
C    -2.28245349     4.02973159     0.91214129
H    -0.20983212     3.43706284     0.98367905
C    -3.96795395     2.26414106     0.91389973
C    -3.60054865     3.60155304     0.89328229
H    -2.16314171     5.09958609     0.80028757
H    -4.99475917     1.94176536     0.80193541
Cl     6.23889233    -2.41642743    -1.91055735
Cl    -4.81144003     4.85535817     0.95912032
N     1.26054928    -0.46089506     0.74309863
H     1.10972735    -1.11022735     1.49899222
C     0.67108662     0.79116596     0.81853985
O     1.20686424     1.78701378     0.39372941
N    -0.62656972     0.76740645     1.29159068
H    -0.96483168    -0.08707415     1.70546249
H    -3.21050635     0.31643075     0.90133588
H     2.58881225     0.80998950    -1.12438013
Cl     4.73322907     0.02069738    -3.00632981
