%nproc=8
%mem=4000MB
#opt=(noeigen,calcfc,ts,recalc=5,maxcyc=200) freq B3LYP/SVP em=GD3BJ

ts-4301.gjf

1 1
O  -4.31468999799568  -0.05605609102398  4.49757741790540
H  -4.51126225696836  0.32632991471185  5.36701192670904
C  1.98358635210429  -2.22211470580608  -0.40110350347256
C  2.74352047428563  -1.14560938921874  0.02437526037926
C  2.19577199477608  -0.42633245760604  1.05782349670473
C  0.93592788842730  -0.90231540976373  1.47640243469372
C  0.45041173618736  -2.13481597542702  1.14044966950961
C  0.94636610782252  -2.97159459841570  0.18196337902396
H  3.75371891122622  -1.02717018267636  -0.31239884041151
H  2.54513712021630  0.46585313879104  1.49667581828190
C  -1.70523249084354  2.06754768374678  3.23679713600629
C  -2.78351846878398  2.86027796662459  3.54564833602640
C  -1.10372916660498  -0.36743747230969  2.97001585575677
C  -3.96538597553906  2.08108214190649  3.77215909164626
H  -2.82675848609766  3.92139784343834  3.35947109094311
C  -2.00794173179182  0.70348511715288  3.61514661516785
C  -3.53589533875222  0.74777404704668  3.83132378137160
H  -4.92934478310706  2.15438662012503  4.22955885157706
H  -1.82346042490000  0.65681881300655  4.72009068715059
Cl  3.21576397628850  -2.94949233715546  -1.23598189399218
Cl  -5.08400055947987  -1.60748144067856  0.26483014974892
N  -0.01060621724925  -0.01406841525884  2.11676389106552
C  0.07205209077451  1.47130063374820  1.70780971894447
O  0.70776225226785  1.72421282376939  0.71210357269307
N  -0.56494797880591  2.29249139430898  2.53718220160274
H  -1.00801027636591  -1.22086065827974  3.59929904290596
H  -0.42294745687785  -2.36509514387748  1.76778687687255
Cl  0.67898896668748  -4.58701325109093  0.25588352523501

