%nproc=8
%mem=4000MB
#opt=(noeigen,calcfc,ts,recalc=5,maxcyc=200) freq B3LYP/SVP em=GD3BJ

ts-4361.gjf

1 1
O  -4.56886266989104  -0.27013356588536  4.23272667434881
H  -5.53522456512411  -0.43824202673635  4.19399130931377
C  1.77085545398944  -2.98501017903865  1.52485093184690
C  2.31211406892574  -1.79540144112718  1.86006217326128
C  1.34966615495008  -0.84601509216880  2.15380299191876
C  -0.03283971871596  -1.05252598714580  1.99024736315036
C  -0.45216662336479  -2.16682719310236  1.14990602403522
C  0.45076877555155  -3.13860755401753  1.00350702330247
H  3.36506566696427  -1.64815042396880  1.81697660641326
H  1.67474888523500  -0.00175232331380  2.69791239808990
C  -2.56977608594706  1.87393869234965  2.12609013526461
C  -3.95075834807602  2.29632938323270  1.74975929903258
C  -1.85858901928066  -0.20237696539605  3.48411829897276
C  -4.96738092560296  1.46832663282507  2.38536326984520
H  -4.06173867401543  3.22925596166859  1.17748886945123
C  -2.86217600483895  1.06894351202164  3.36773788953815
C  -4.17768344789777  0.39265146804720  3.13562775024191
H  -6.01896088089854  1.70245803947864  2.21709484548905
H  -2.87892326159982  1.45158492511036  4.37686874858597
Cl  2.83706976071407  -4.46253601796806  1.65880440540034
Cl  -4.18431048140647  -0.98622326958053  1.79104310800712
N  -0.80892229158382  -0.68846335558011  2.95604117974527
C  -0.18758772036642  1.98529126065419  1.69989013860807
O  0.93309291713658  1.97980384859225  1.47161385028462
N  -1.32156887089704  2.37463494244380  1.90432637221253
H  -1.90945092271017  -0.51956132444775  4.52353878054734
H  -1.47318352489117  -2.33458128555782  0.80589186932162
Cl  0.23174895405363  -4.64861216432692  0.53733433414846

