%nproc=8
%mem=4000MB
#opt=(noeigen,calcfc,ts,recalc=5,maxcyc=200) freq B3LYP/SVP em=GD3BJ

ts-5677.gjf

0 2
H  -2.74028864225465  2.38866644227540  -0.59423041959187
O  0.14426643859294  4.17926163293850  -3.52857885946628
H  -0.69561805427973  4.60060034823193  -3.76344465257078
O  -2.37671185321279  0.18393072587886  -2.67518672591061
Cl  -3.66392041495970  1.54297404122185  -4.75847396172215
C  -2.11905913713271  1.81963885596809  -2.53971534867169
C  -3.68728995365942  2.02206576256095  -3.08847458876280
C  -2.12471561288413  1.67629607272636  -1.00886966578076
C  -4.74339841776666  1.29403327517118  -2.15115236267685
H  -3.99872253063724  3.09302687701611  -3.05070863621794
C  -2.76465949512289  0.15711042527632  -1.30492549991335
C  -4.17628385355919  0.16115957127801  -1.60619319666003
H  -5.75398832414802  1.27550636001724  -2.52613112694067
H  -2.25693172519240  -0.60857461550324  -0.69157772875345
Cl  -5.35701536894564  -1.10784643338196  -1.08761971825712
C  -0.04562697139723  2.88057620183380  -2.91759203246112
O  0.79817215519272  2.31988571738518  -2.23924791577655
N  -1.22964646063698  2.40887514988399  -3.33971201467532
H  -1.23480335898408  1.72990223246674  -0.65298958946754

