%nproc=8
%mem=4000MB
#opt=(noeigen,calcfc,ts,recalc=5,maxcyc=200) freq B3LYP/SVP em=GD3BJ

ts-5697.gjf

0 2
H  -3.34040009347532  2.43756519287213  -0.51663370822199
O  0.79664267061906  3.93384757049223  -3.67687777615870
H  1.18738927651403  4.31670344084252  -2.84372583406418
O  -2.50783126691906  -0.33460105467724  -2.47989527448762
Cl  -2.94282028005474  1.38024333502045  -4.70676119544406
C  -2.21881915204302  2.48680430953928  -2.19730255451588
C  -3.42751622427423  2.31504647198546  -3.23547363107294
C  -2.54013088087620  1.92563346560588  -0.95973008260993
C  -4.62619703128197  1.43648683208159  -2.78915329679913
H  -3.71146987720593  3.31683107709073  -3.61442529551522
C  -3.02171495860141  0.30651313081384  -1.39493098723489
C  -4.55176385871371  0.57664370045367  -1.81644682399630
H  -5.46619383521215  1.54901507550595  -3.50905698393628
H  -3.22822945890494  -0.21582228957921  -0.39427299929093
Cl  -5.67322347027617  -0.78366187633076  -1.45969030982035
C  0.12429048157688  2.80468271790613  -3.41745185832905
O  0.43517734604966  1.76196633970513  -3.94390771710393
N  -1.02366434043612  2.79126318005629  -2.52699103663355
H  -1.57923945064446  1.93452241325029  -0.33668684370143

