%nproc=8
%mem=4000MB
#opt=(noeigen,calcfc,ts,recalc=5,maxcyc=200) freq B3LYP/SVP em=GD3BJ

ts-2835.gjf

0 1
C  -1.00140214352166  -0.00917342501172  -4.33204686896361
C  0.02306528141112  -0.15531933723067  -3.35490875433108
C  -0.13101639450380  -0.65445091884008  -2.12859223287592
C  -1.39256946898643  -0.93224879300676  -1.55506052180162
C  -2.31326130323155  -1.09599350098546  -2.54630151573633
C  -2.22418481646812  -0.56832249862784  -3.82075578688680
H  1.01606170330336  0.20739320125294  -3.55811195164553
H  0.66878440020756  -0.80550116504106  -1.40507740662457
C  -4.07275272540064  -1.43256509375540  2.42816658674890
C  -4.96956034631668  -0.29218486540495  1.96468061789426
C  -4.25608382373116  -1.84855551113642  3.71553061846134
C  -5.56309398659197  0.44672458675849  2.89796265683390
H  -4.99700998125519  0.13962177982342  0.94670141146808
C  -5.15075178421455  -1.24990076279311  4.55742006281838
C  -5.57312344997866  0.06268788402605  4.22368999129225
H  -5.84972908212528  1.45473942715672  2.56394358185005
H  -5.50844994075962  -1.54034050669179  5.48842138572171
Cl  -0.05033722248142  -0.07661767786088  -5.89957184383792
Cl  -5.93893346165692  1.18400051976876  5.32282583723913
N  -1.70723473269086  -1.07477911341840  -0.27018422836549
C  -2.77886304635191  -0.87624502969576  0.51029076919082
O  -3.35960191314008  0.23285184591464  0.15702097558271
N  -2.91696801082140  -1.53167766635226  1.77343745688207
H  -3.64013951308957  -2.68357983038543  3.92488342241377
H  -3.35278330479075  -1.36689999398015  -2.22894598728129
Cl  -3.78707804769641  -0.85184320926991  -4.93053360616414

