%nproc=8
%mem=4000MB
#opt=(noeigen,calcfc,ts,recalc=5,maxcyc=200) freq B3LYP/SVP em=GD3BJ

ts-3305.gjf

0 2
Cl  -1.91555453700121  2.27495923994244  -2.80062264571162
O  0.69878100199100  2.40154935551455  -4.49831117177840
H  -0.26452610733548  2.52679577678554  -4.46517256994245
H  -0.32307540353077  2.58692563461625  -2.31611005622685
C  2.84128666522439  0.16836556162663  -2.73365027859411
C  2.31830087216035  -1.05175146504709  -2.08143398485698
C  4.19927892351045  0.46181145921107  -2.57112129728990
C  3.16792092364147  -1.73439965189203  -1.26126880598461
H  1.38198411198784  -1.44604479507520  -2.33249994528451
C  4.98067453184432  -0.07910882048183  -1.59203266417753
C  4.35091620869466  -1.04064439885983  -0.71879668995444
H  2.79422287270885  -2.63289627667211  -0.75386971430182
H  5.89509200803188  0.40493880321237  -1.35275496097111
Cl  4.72603723693197  -1.88590708046636  0.64929810046846
C  1.05689740534803  1.77351302278737  -3.36989843542598
O  0.62439521141879  2.16937608447024  -2.14015325662177
N  2.20969876620475  1.13652724813517  -3.30917005166782
H  4.26087317118696  1.40368321179146  -3.14124770854311

