%nproc=8
%mem=4000MB
#opt=(noeigen,calcfc,ts,recalc=5,maxcyc=200) freq B3LYP/SVP em=GD3BJ

ts-3325.gjf

0 2
Cl  -2.58119898913168  2.92865691349118  -3.06933168017807
O  1.13008808275649  1.88376666319664  -4.46302992977322
H  0.37498684810264  2.40208619058495  -4.74548894326600
H  0.02258498600346  2.43515118871841  -2.53833375805238
C  2.70727530892278  -0.49338996962483  -2.48633657662022
C  2.36920541661149  -1.05350210822956  -1.28886092065117
C  4.08246431873089  -0.27567697229288  -2.77558749996993
C  3.39753820420826  -1.67313085061140  -0.49442039666911
H  1.36734792593839  -1.04819012453775  -0.95496169485422
C  5.07640398870813  -0.62246685461163  -1.88619106760246
C  4.75766596013260  -1.17091609800409  -0.61185595297146
H  3.02028728022812  -2.26921659229642  0.33546577160698
H  6.06615199759750  -0.62760732884615  -2.32356475811495
Cl  5.83135696195930  -2.08428048139217  0.23636233614679
C  1.32684832565907  1.33019135209600  -3.32617624444308
O  0.59467459335113  1.86311202631750  -2.30230359982238
N  2.12234105304289  0.29990851229715  -3.38259491940538
H  4.34463407467191  0.07894683631268  -3.78096524636814

