70
 energy: -143.140050675406 gnorm: 0.118111878914 xtb: 6.6.1 (8d0f1dd)
O     0.53892396    -4.66529591     1.51656539
H     0.81742370    -5.27226497     2.20458027
H    -0.30993595    -4.31161719     1.78801871
O    -1.39681705     0.65882587    -1.93632001
H    -0.81546426     1.36822131    -1.65681001
H    -1.93326985     0.33849368    -1.20903482
O    -0.19743232     0.72988291     3.60525503
H    -0.80420086     0.01922299     3.39046898
H     0.62522678     0.24318129     3.68069970
O    -1.56640698    -1.44549495     2.55405324
H    -2.09239393    -1.02246842     1.87307949
H    -0.75837026    -1.72291585     2.11879153
O     0.42134694    -1.27499678    -2.11411885
H     1.02186369    -1.35060645    -2.85775990
H    -0.00255805    -0.42543016    -2.24783203
O    -2.37501565    -2.44596645    -3.61062476
H    -2.34787704    -2.69612630    -4.53583907
H    -1.70465656    -1.79656884    -3.39098666
O     0.31401739    -1.61651813     0.64025034
H     0.14639918    -1.51930613    -0.29878715
H     0.52683224    -2.55107974     0.66560836
O    -4.97423086    -0.97707803    -2.90321013
H    -4.33073645    -1.67883390    -3.01631111
H    -4.88988412    -0.28889711    -3.56550097
O     0.22533029    -0.12684770    -4.57314087
H     0.90648406     0.54210705    -4.48444087
H    -0.41162896     0.09574553    -5.25436989
O    -3.46618129    -0.06467676    -0.24979549
H    -4.07477077    -0.33130218    -0.94107551
H    -3.79627622     0.72278976     0.18640642
O    -3.02777980     0.92680907    -4.25809502
Cl    -4.38337366     1.93775378    -4.05433464
H    -2.61311376     0.76627846    -3.40201768
O     1.73668487     2.48378074     3.77061929
Cl     2.59522223     1.63316765     4.97084245
H     0.85332705     2.58872237     4.14378589
O     1.78460708    -1.42140546     2.89163649
Cl     3.11914060    -2.44127500     3.17456797
H     1.53425508    -1.46751117     1.96116120
O    -1.38465984     3.41612956     3.92891521
Cl    -1.65176697     3.95689360     5.52183356
H    -1.30708647     2.45468538     3.94289844
C     5.47614675    -0.22026898    -0.47483501
C     5.48445301     0.49797262     0.71461127
C     4.35813037     1.06471111     1.28020271
C     3.14038980     0.87591855     0.61811803
C     3.06438630     0.28852147    -0.64445220
C     4.22805338    -0.33475324    -1.08012296
H     6.44213252     0.66972739     1.18809321
H     4.39943755     1.64112786     2.19782624
C    -1.36308747     2.81416756     0.89565246
C    -1.36311223     3.76171572    -0.13100715
C    -2.57851285     2.51052648     1.51565279
C    -2.53398682     4.38966058    -0.53647909
H    -0.38884970     3.91243959    -0.56742538
C    -3.75346927     3.13322511     1.12734085
C    -3.72121971     4.06631173     0.10147933
H    -2.44266599     5.18226153    -1.26776525
H    -4.63286382     2.85145340     1.69130981
Cl     6.86385694    -0.99342809    -1.16887671
Cl    -5.28434629     4.66342377    -0.39117922
N     1.95310495     1.40137901     1.15082897
H     2.00148783     1.82901932     2.06216732
C     0.84091675     1.75356647     0.40262071
O     0.80518621     2.01873694    -0.77536157
N    -0.26721310     1.98274429     1.19494590
H    -0.12646026     1.67143237     2.14316612
H    -2.61153331     1.80694094     2.34106244
H     2.11432237    -0.01417776    -1.05398445
Cl     4.16766481    -0.90612199    -2.71573911
