%nproc=8
%mem=4000MB
#opt=(noeigen,calcfc,ts,recalc=5,maxcyc=200) freq B3LYP/SVP em=GD3BJ

ts-3295.gjf

0 2
Cl  -1.85507246136965  2.00682402924225  -2.74534621428446
O  1.21153908308662  3.52079816628873  -3.68543828899892
H  0.71389918374724  4.05963112352524  -3.03313508137407
H  -0.53053608174540  1.86933390864797  -2.48610841872021
C  3.10065970911674  0.45818883525151  -2.96506810712891
C  2.42753855563415  -0.84488324210347  -2.73413678325620
C  4.32922587191842  0.65100081586000  -2.25370848416895
C  2.60885220996975  -1.58550171471938  -1.58319099208774
H  1.56355123816468  -1.14657820400039  -3.30801497667196
C  4.63803247427114  -0.21626060846244  -1.29462149461574
C  3.76620829259756  -1.21669255427613  -0.84758364264354
H  2.13738669939189  -2.54666813579989  -1.41907947952103
H  5.58474817380890  -0.16593622566220  -0.71618072183426
Cl  4.35928195783363  -1.76054714006856  0.76403389286276
C  1.50393057875651  2.41243840517435  -3.01475321285998
O  1.17677429303501  2.37944197436442  -1.80165556081781
N  2.38643570749483  1.47070562383027  -3.49190532662229
H  4.91405167870225  1.39904974511571  -2.73355679771019

