%nproc=8
%mem=4000MB
#opt=(noeigen,calcfc,ts,recalc=5,maxcyc=200) freq B3LYP/SVP em=GD3BJ

ts-3315.gjf

0 2
Cl  -2.40808871921930  2.59874811637557  -2.94877712726099
O  0.60699735313805  1.90632498842151  -4.58712997380953
H  0.03083179129327  2.70086090946591  -4.46991234913369
H  -0.04535998379628  2.47978713087226  -2.59061454856158
C  2.84185261574706  -0.09694634102079  -2.74949215947618
C  2.28836457304012  -0.93478765196483  -1.75486808668379
C  4.20266488821461  0.12146408556335  -2.48069954516368
C  3.00590479213517  -1.75536710790979  -0.87215381406497
H  1.19827721041550  -1.20801994707193  -1.62675704729495
C  4.86535115931820  -0.85700005280287  -1.76251911360883
C  4.32569052247809  -1.47372907238336  -0.67273985166328
H  2.61799794582134  -2.42569309280891  -0.14297169130587
H  5.89591780186826  -0.56870076688040  -1.47468029568323
Cl  5.53554765991741  -1.90393136779616  0.57383084289487
C  1.09430985203245  1.38630755973520  -3.52792424000920
O  0.72752296138400  2.13061474249510  -2.42938136173330
N  1.99150751690139  0.55196902903141  -3.54541452187228
H  4.68925337038532  0.84958904820149  -3.06162316652760

