%nproc=8
%mem=4000MB
#opt=(noeigen,calcfc,ts,recalc=5,maxcyc=200) freq B3LYP/SVP em=GD3BJ

ts-3335.gjf

0 2
Cl  -2.39278317421003  3.21028329782798  -3.15199426057575
O  1.19664942708102  1.81630649179075  -4.41593253724881
H  0.35090258915667  2.26679329710334  -4.58110234111461
H  -0.67930846590673  1.91484136438684  -2.60732600824875
C  2.94236927796288  -0.41989581605032  -2.48607170343498
C  2.72251758593593  -0.97113536582674  -1.20836743706192
C  4.30561089751001  -0.12169093286651  -2.72678375260611
C  3.72469500445386  -1.51153208041298  -0.39577056361487
H  1.78994123633768  -0.72607967577298  -0.77359708560934
C  5.28895440552200  -0.94261702967909  -2.16370560309232
C  5.09005459741087  -1.44011794168202  -0.88513863646671
H  3.57231693276687  -1.75576702447388  0.64257855838643
H  6.14422907077995  -1.26777131614224  -2.74091549840842
Cl  6.29060742766499  -2.25096745691266  0.11443673248921
C  1.25977281976446  1.13672917931050  -3.23788777625992
O  0.38879230450836  1.55787689985035  -2.26525676202541
N  1.94903059045016  0.11691518884023  -3.22406837877916
H  4.71631603111545  0.43810159588435  -3.58993672560512

