%nproc=8
%mem=4000MB
#opt=(noeigen,calcfc,ts,recalc=5,maxcyc=200) freq B3LYP/SVP em=GD3BJ

ts-3390.gjf

0 2
O  0.71981164239164  -2.05100233887873  2.31600320471259
H  0.22334692081010  -1.37091818855271  2.68645544242903
O  0.13212913208268  -5.86871978237031  1.10488788643491
Cl  0.18678945448852  -7.49188482679538  1.81493604388827
H  0.56916883112966  -5.99396179041618  0.27185479591505
C  1.57439614642497  -0.07369054432195  -5.45107659988127
C  0.44274821623856  -0.79110776261963  -5.20528650758719
C  -0.09678453350239  -0.93085569060491  -3.97963653822033
C  0.40792958030132  -0.30397720294221  -2.78838667745247
C  1.76096460010831  0.31351114548375  -3.10864706469182
C  2.29483446418896  0.38636371966589  -4.37836180145441
H  0.09074440188824  -1.36467606932639  -6.05871293825044
H  -0.96172524813337  -1.58313324808033  -3.90186546289875
C  -2.44521585177490  -2.21684322460501  0.57018082760662
C  0.07963775797812  -2.65170747300557  1.23577666359353
C  -3.65744309044244  -2.90414552710707  0.78507845508952
C  -1.49444744377140  -2.84286861960872  1.42767412879943
H  0.68671623134840  -3.58697184115653  0.97285754214004
C  -3.52642908272558  -3.82401049904892  1.75720088600125
C  -2.12551331215536  -3.77485558408760  2.13805579931992
H  -4.22546092592298  -4.58671037905555  2.06340216084190
Cl  2.13167448007792  -0.00214794724711  -7.08690752559945
Cl  -1.42766883914450  -4.70207683098919  3.35531734096412
N  -0.16457632851279  -0.62412489562860  -1.62540467503799
C  -0.72980248291728  -1.25079961481380  -0.70669344413121
O  0.21521797137559  -1.86807706498670  0.09596556042326
N  -2.09537065126605  -1.33388845142932  -0.36976456551809
H  -2.83757981826545  -0.94533420108666  -0.94431587072692
H  -4.67761092253790  -2.51768115802818  0.66824342293706
H  2.09320694513110  0.80785123707470  -2.24723058370477
Cl  3.47523592187110  1.59057607260278  -4.82656144911141

