%nproc=8
%mem=4000MB
#opt=(noeigen,calcfc,ts,recalc=5,maxcyc=200) freq B3LYP/SVP em=GD3BJ

ts-5454.gjf

0 2
H  -1.13646134332539  2.96167391713263  -1.33308954233055
O  -1.59810478958697  2.56642493921513  -6.54963287321980
H  -1.96911259282971  2.47965907545061  -7.36605761108043
O  -2.69402073261760  -0.32542513179202  -1.60169513919703
Cl  -3.34290839264527  -0.26287305247345  -5.59348224788826
C  -2.17531532140147  2.37937779249825  -2.94273232538174
C  -3.37753994834745  3.13222916869912  -2.37078633231965
C  -1.33913744073506  1.93159825487382  -1.57410506176802
C  -3.81542823659984  2.76431762764132  -1.09333537012231
H  -3.38645144096133  4.14231705652670  -2.68858892121444
C  -2.29903374024450  0.96170354819451  -0.83109646487548
C  -3.58468682595770  1.42671343713500  -0.65640515318321
H  -4.60347153123450  3.20507969534320  -0.48991780752037
H  -1.96118140128552  0.30965979370191  -0.03086959737011
Cl  -5.00591683399544  0.53053194792563  -0.30325080368041
C  -2.38959726222263  2.57686687234662  -5.37912734663621
O  -3.61443564124234  2.79980360065704  -5.24863404274006
N  -1.63870009751108  2.06253556051947  -4.07897367445248
H  -0.38479560495341  1.43719968865451  -1.85034874384859

