%nproc=8
%mem=4000MB
#opt=(noeigen,calcfc,ts,recalc=5,maxcyc=200) freq B3LYP/SVP em=GD3BJ

ts-5464.gjf

0 2
H  -0.64375059768316  1.54069826666913  -1.16368028435934
O  -1.58899950461184  2.71174793841449  -6.04923107345655
H  -0.88496289651310  2.37005770043011  -5.54623477720443
O  -2.39666022086030  -0.53551271357040  -1.35151470708803
Cl  -3.67879966010848  0.03002504236276  -6.10813665676556
C  -2.18676038699195  2.26902175196136  -2.97628381533927
C  -3.21838706575918  3.24465702877410  -2.40174569024214
C  -1.19939925704834  1.33602309557128  -2.09481981453314
C  -3.91644000554548  2.66620044700575  -1.42102432979956
H  -3.19762359435253  4.27742081423963  -2.76265167312573
C  -2.29811352295195  0.68796979312150  -1.02237042937818
C  -3.59439201505328  1.48108903162284  -0.94709026159667
H  -4.72621597559252  2.98163365273906  -0.76359135294436
H  -1.77373166077041  0.88277213515218  0.01058501941075
Cl  -4.74858710243963  0.78140610913543  -0.04346341100104
C  -2.61674258322059  2.80837706983887  -5.27414413439854
O  -3.40002080171965  3.64919854745022  -5.26156663506488
N  -2.52127914296188  1.88881822275876  -4.16193160301207
H  -0.93443701526994  0.41309921275047  -2.64906964276195

