%nproc=8
%mem=4000MB
#opt=(noeigen,calcfc,ts,recalc=5,maxcyc=200) freq B3LYP/SVP em=GD3BJ

ts-5902.gjf

0 1
O  0.51147146070728  -1.83307408622153  1.69875616180716
Cl  -2.22003709390836  -1.60861270873287  -2.40563192463507
O  -4.53050222557763  -2.63701647191240  -0.16929553549997
H  -4.91842997055803  -2.12476568212923  -0.94106745324943
C  -2.44943316347492  -3.55018295765974  0.40897040852543
C  -3.29469903326229  -2.19817273651178  0.26777851844754
C  -2.50634168719967  -1.30557714304736  -0.62079933262548
C  -1.21524254935681  -1.18196209942795  0.04887648445085
C  -0.83711699334595  -2.17191834972426  1.42755407254749
C  -1.10976548688701  -3.43325130875596  0.66265469714302
H  -3.22308049782955  -1.45846303703279  1.23723278636897
H  -3.02227331007494  -0.33387257693739  -0.72927666291760
Cl  -3.09924135366648  -5.03353939537838  -0.15250707044225
N  -0.19782307377643  -0.44327162814689  -0.00213976716013
C  0.88538165883155  -1.02939197291887  0.67460558942017
O  1.98366914006961  -0.78810182356650  0.43929892549937
H  -1.54326422488939  -1.94564893774877  2.23820814642692
Cl  -0.05112153043790  -4.76557816424167  0.26367298919765

