%nproc=8
%mem=4000MB
#opt=(noeigen,calcfc,ts,recalc=5,maxcyc=200) freq B3LYP/SVP em=GD3BJ

ts-4588.gjf

0 1
O  -3.51999710817463  -1.96149217573538  4.68412193771018
H  -2.86961001475609  -1.48954431341013  5.22378901773094
H  -3.91177015841479  -2.71346501712495  5.06654787800352
O  2.59387888762853  1.81839763255802  4.02067237651662
Cl  0.91940228615241  2.18765041797066  3.68230182041523
H  2.42934215239300  0.84370652481451  4.11164328566121

