%nproc=8
%mem=4000MB
#opt=(noeigen,calcfc,ts,recalc=5,maxcyc=200) freq B3LYP/SVP em=GD3BJ

ts-4628.gjf

0 1
O  -4.11685109631389  0.98218588247347  7.09853296795282
H  -0.52598617608714  -0.90527391606307  4.97845506541268
H  -3.11665000540082  0.62244825703469  7.20282065632447
O  -1.04634659316702  -0.01605837954937  5.33396119835014
Cl  2.46124844935750  1.24290252258921  1.96549088668208
H  -0.42618469382780  0.41358119893944  5.93348332526970

