%nproc=8
%mem=4000MB
#opt=(noeigen,calcfc,ts,recalc=5,maxcyc=200) freq B3LYP/SVP em=GD3BJ

ts-4638.gjf

0 1
O  -5.74826618757008  2.10209766126691  8.85825805510671
H  -0.01235284301283  -0.17153475092200  6.43734037922593
H  -5.83860708988936  2.10188356337705  7.90822575878342
O  -0.97202755424452  0.06250868203345  6.03751434056062
Cl  2.85036980809154  1.34326558854406  1.98371330792287
H  -1.76893404330854  -0.40611243938781  6.28252990067783

