%nproc=8
%mem=4000MB
#opt=(noeigen,calcfc,ts,recalc=5,maxcyc=200) freq B3LYP/SVP em=GD3BJ

ts-4393.gjf

1 1
O  -4.83835218682538  0.68470955476264  3.94928829113245
H  -5.76678569520179  0.61979148883838  3.73459252735998
C  1.42848535440621  -3.70877397958973  2.44606551330574
C  1.51254064094616  -2.96685326662340  3.56183506129949
C  0.78881438751139  -1.81534628081955  3.61947744436655
C  -0.22370937112535  -1.66717061294301  2.55980975090447
C  -0.35084874838551  -2.64515807143929  1.53537270753999
C  0.55675544003909  -3.59316517314507  1.40946078710698
H  2.17922974992776  -3.28473405729935  4.35113722351636
H  0.95083399691897  -1.03243593291063  4.31855491457646
C  -2.69086400300055  2.31312538624733  1.68121525952098
C  -3.74914398395611  1.82741055492762  0.88013090447436
C  -2.05632369028262  0.04992293596212  2.92950525720314
C  -4.64917861319726  1.20642233276981  1.75294355937432
H  -3.81419929184297  2.20223253378517  -0.14742818355407
C  -2.64709170047721  1.56953705061603  3.00586988385525
C  -4.12002248558456  1.17010092716038  2.93587210699175
H  -5.58834781944134  0.72390652015476  1.55637768497223
H  -2.37749642818437  2.21375388252550  3.87404008112724
Cl  2.39575606142966  -5.02993293953809  2.53962653107562
Cl  -3.54426519761949  -2.17681775091102  2.43745147685552
N  -0.99036742414570  -0.50514710456088  2.39549565008524
C  -0.37799668411107  2.70345513500727  1.45827757242357
O  0.69413939027729  2.78205070515105  1.92533566963292
N  -1.48897920840608  2.65552389581476  1.05405713233889
H  -2.51455728764316  -0.54758581740587  3.76309289426892
H  -1.12204432633596  -2.62659942065088  0.76858256631600
Cl  0.28501320629374  -4.87001293944963  0.35335944030755

