%nproc=8
%mem=4000MB
#opt=(noeigen,calcfc,ts,recalc=5,maxcyc=200) freq B3LYP/SVP em=GD3BJ

ts-3.gjf

0 1
O  0.00604150512206  1.39564754006896  3.23526143144841
Cl  -0.80989898888753  0.65684314187416  4.51918005459683
H  -0.15974266912849  2.34727339982412  3.42435601630284
C  -5.07112281760449  -0.86750736569778  0.88642873011557
C  -4.37837035321253  0.29601495503190  1.29936828690918
C  -3.03915994587185  0.17043085600793  1.72960365147508
C  -2.41330676337952  -1.01882984405748  1.73341861901385
C  -3.17474591119594  -2.16603722651403  1.47438027286450
C  -4.46576830849414  -2.08309942940105  0.91636884458112
H  -5.00202134078176  1.15084956310969  1.33679118515930
H  -2.60585102519387  0.96206570058972  2.26033448638136
C  2.15172734242119  -2.58554087671274  1.91322808381985
C  2.20714659184422  -3.78781747749857  1.15726223871366
C  3.35500263803402  -1.94850428630710  2.20818704133758
C  3.41607719972352  -4.11792617063660  0.50669827426290
H  1.35475081238442  -4.39731559279545  1.02318455601262
C  4.48294699934938  -2.25464517534053  1.46696816234572
C  4.55347174181630  -3.37778660792998  0.65890383782834
H  3.29876117972239  -4.84684176745689  -0.29839334994979
H  5.28434461320792  -1.54556301730342  1.44493340699270
Cl  -6.73895556579435  -0.82855263203645  0.61245152947327
Cl  6.00727008847454  -4.02597269913017  -0.05531485591478
N  -1.06995797858934  -1.03608106087246  2.06806178308883
H  -0.71262429481771  -0.11242629578124  1.74169780496978
C  -0.28359279122561  -2.12387612045051  1.74773102367946
O  -0.60139568103337  -3.04606914238316  1.06719871255610
N  0.97709693775635  -2.00120785725586  2.25452424011130
H  1.18876543634269  -1.09661071632878  2.73437667482209
H  3.29375205989907  -0.92616821778528  2.59654009116905
H  -2.81592945366037  -3.13730742643986  1.67941385114979
Cl  -5.34408030279875  -3.48509708939299  0.48730721773783

