%nproc=8
%mem=4000MB
#opt=(noeigen,calcfc,ts,recalc=5,maxcyc=200) freq B3LYP/SVP em=GD3BJ

ts-33.gjf

0 1
O  0.65893025054251  1.35643449936247  2.74212688072398
Cl  -0.80363502889543  1.21778930708812  4.91517856850851
H  0.17061264073672  2.13135900087565  2.70777512935607
C  -5.61019881858554  -1.22635720326024  1.50621111106487
C  -5.01769306681362  -0.26340094820927  2.25306921379339
C  -3.68677321598752  -0.31500508508261  2.72045597268615
C  -2.91176598755193  -1.37727110211850  2.17562043341024
C  -3.53553309353412  -2.46953014232321  1.55349214239021
C  -4.86091034496332  -2.42194460675575  1.25740646339049
H  -5.60527400042361  0.58007518040110  2.43143547800251
H  -3.13867257669673  0.39599753468993  3.21251505586705
C  1.92145546187446  -2.10571061197156  1.69013877170399
C  2.28762677469775  -3.39408290773450  2.20816587172738
C  3.06816984794935  -1.34163547204107  1.38430474666691
C  3.57675933388674  -3.83909352662349  1.94860771952797
H  1.83819005180666  -3.87779388123109  2.98409675858741
C  4.22167241790763  -1.82126524919074  0.94009121910492
C  4.56102530411570  -3.17386437970518  1.11941814269013
H  3.81552781678381  -4.79429169321163  2.39627311628324
H  4.91630904071255  -1.09063392580654  0.59383828163848
Cl  -7.18095121710426  -1.07695777763829  0.71661324227365
Cl  5.85918921662729  -3.95809478950825  0.29589707117450
N  -1.54377846680305  -1.22303688526570  2.30409549155220
H  -1.08145173101601  -0.44647334379328  2.79004464330622
C  -0.53825708525884  -2.06936658038814  1.71795932289643
O  -0.89310001713506  -3.19782168555510  1.28610229589623
N  0.69134884604915  -1.56203648501139  1.74122634298692
H  1.13077712494754  1.66981695751798  3.45227976658380
H  2.98136981662583  -0.28568304102503  1.06947095125423
H  -3.00406099596374  -3.35292117384451  1.33023599741619
Cl  -5.75539922688300  -3.85226304586926  0.86450543496660

