%nproc=8
%mem=4000MB
#opt=(noeigen,calcfc,ts,recalc=5,maxcyc=200) freq B3LYP/SVP em=GD3BJ

ts-53.gjf

0 1
O  0.43431580511792  2.47836134339139  2.86345638326676
Cl  -1.49182201051848  0.93633965720443  5.70801142846111
H  1.31012129269702  2.74605391580880  3.27024395631221
C  -5.67377017606860  -1.63701684586079  1.84013327163706
C  -4.99109616493634  -0.59550456331274  2.51749674184836
C  -3.70857054770863  -0.78167495696849  2.90577052513849
C  -3.05911187842319  -1.95746847437719  2.56690279902734
C  -3.67723138319233  -3.04434007568756  1.88720987382867
C  -4.99902983001331  -2.79677702333321  1.55946341099030
H  -5.63025437819030  0.24572415745160  2.90853750888912
H  -3.36050349650165  0.01426859273474  3.53973656515261
C  1.63973274230216  -1.97748709672765  2.14841093767324
C  2.13497155269329  -3.10084454625345  2.88900535501300
C  2.55855312185901  -1.28991858787090  1.35876042064464
C  3.37686976422526  -3.63836593460233  2.50807377606387
H  1.43362365189111  -3.61244451983105  3.57656481304089
C  3.68337014290293  -1.92204432113638  0.81798979115877
C  4.09244454063026  -3.14272131129001  1.46275675956341
H  3.81171381203803  -4.54006178296221  3.01965943339544
H  4.19126406952331  -1.65023724288106  -0.10055797531410
Cl  -7.32048064897501  -1.33533164603395  1.60329881166266
Cl  5.62011293773983  -3.82828890441263  1.13280800266296
N  -1.77981912684801  -1.93246943591747  2.86674659159590
H  -1.52488275878045  -0.97099222887260  3.12675620193435
C  -0.64100855955147  -2.46758675967305  2.32471363712215
O  -0.59404781555739  -3.63328858550010  1.94860650476806
N  0.35884914143798  -1.51642755213781  2.27796435538603
H  -0.33504265365577  2.88242826114416  3.27441380483882
H  2.23583082284293  -0.29695928084102  1.16634309950255
H  -3.07676767710331  -3.97536993295164  1.65547634200084
Cl  -5.77745982761067  -4.05473979931703  0.66352427727783

