%nproc=8
%mem=4000MB
#opt=(noeigen,calcfc,ts,recalc=5,maxcyc=200) freq B3LYP/SVP em=GD3BJ

ts-5080.gjf

0 2
O  -7.27949198765755  -1.31377675795623  -0.58208080377869
Cl  -7.23294601356347  1.67358444281759  -2.14631971378700
H  -5.85182886367604  -2.41270813028050  -3.03887036703178
C  -4.68017640181345  0.27830755643383  -1.67989779644499
C  -3.63747398285235  0.59427767555860  -2.58079679769331
C  -5.09312670522978  1.14936189285008  -0.60538884801141
C  -3.09880446339404  1.90966368226462  -2.43998833290571
H  -3.52588007546833  0.12399867971659  -3.54848354815341
C  -4.43108919598699  2.33143772700432  -0.45059915734819
C  -3.36626091614770  2.65940809021730  -1.28078113734420
H  -2.23210604181477  2.17568502158277  -3.00734987943613
H  -4.71091170015861  2.97383276818774  0.35795924671406
Cl  -2.57272857991280  4.23102362678262  -1.07325891929719
H  -8.26216132070025  1.65330333752182  -1.25842785602508
C  -6.53846682671647  -1.37926821426425  -1.54594936125264
O  -6.65371774326938  -2.31196104325224  -2.49135155194704
N  -5.37110913636658  -0.80547373680496  -1.84914414552960
H  -5.84379844325853  0.82400962293320  0.11031394922618

