%nproc=8
%mem=4000MB
#opt=(noeigen,calcfc,ts,recalc=5,maxcyc=200) freq B3LYP/SVP em=GD3BJ

ts-5110.gjf

0 2
O  -6.83209762006920  -0.85965964873991  -1.96136869482034
Cl  -7.45369820335922  2.51874658980377  -1.89351113413498
H  -4.55624096940243  -2.97990525268968  -1.54372244680191
C  -4.23905075720622  0.44331558404793  -0.92983304152924
C  -3.82005301037724  1.34332893133376  -1.94091898152249
C  -4.40999807656618  1.01818097437430  0.31658825003753
C  -3.53964798821429  2.69026910307720  -1.71477440888230
H  -3.93184818823345  1.03382214452923  -2.97849740474055
C  -3.91058513129627  2.28083949197940  0.57158834367863
C  -3.44579280716805  3.17345573175028  -0.40545559279801
H  -3.11679585782567  3.20854169491741  -2.55375068519121
H  -4.01773056823457  2.59448724978526  1.59014842765147
Cl  -3.20610913476896  4.84415569936037  0.04241755631809
H  -7.20071294641347  -0.07068413562676  -1.84812721949926
C  -5.57925194156233  -1.33581574159517  -1.76141403823975
O  -5.42151515535644  -2.74649882067070  -1.96559967345280
N  -4.61604016307431  -0.84521194246904  -1.18103863677526
H  -4.85548444415595  0.46572555286188  1.14024137017685

