%nproc=8
%mem=4000MB
#opt=(noeigen,calcfc,ts,recalc=5,maxcyc=200) freq B3LYP/SVP em=GD3BJ

ts-3086.gjf

0 2
O  -1.01308596223971  5.36757165223138  -1.78620960924187
H  7.16297624162205  1.03433761501717  -1.44836973589502
C  2.79311995011975  0.82540909656984  3.21434059588937
C  1.95378731219362  -0.09962079725035  2.62338011260438
C  1.27107978998578  0.34744867778066  1.42209593167962
C  1.64700659455156  1.57094447887312  0.82101728497925
C  2.35216328393005  2.55097094393695  1.60365195298569
C  2.86914223985537  2.17645247126389  2.80953609308575
H  1.81848051176294  -1.12709624161869  2.85038869776338
H  0.69149585974523  -0.40957999132964  0.92601466842776
C  0.77439216855836  1.84578669807893  -2.60403781644072
C  -0.56206519995608  2.13957505968768  -2.99133236798605
C  0.82900309064807  2.43909672009085  -1.24197993319245
C  -1.13682244995900  3.13371814372866  -2.22324389233268
H  -0.74839997816514  1.40880052053824  -3.79661179030524
C  0.97608321713253  3.81124982551409  -1.74642615128729
C  -0.36803631819401  4.32043236279257  -1.92342864685028
H  -2.24341529920255  3.02777851861557  -1.99419618232825
H  1.70798017238281  4.53314010995836  -1.86242651827407
Cl  3.91461993369782  0.40346670035468  4.42380865434672
Cl  5.91815576817367  0.71754922432787  -1.39054187192367
N  1.69567732665328  1.64770031865339  -0.61102657847007
C  2.19513425803653  0.55441000873269  -1.36346394515501
O  2.92143360993716  -0.23359353106319  -1.01288238028143
N  1.67759013715445  0.86564442005512  -2.65382745760043
H  -0.02416563803263  2.40876181709720  -0.59758966019211
H  2.64941271400466  3.46132743569761  1.10009668696590
Cl  3.84250550519040  3.31554053707532  3.68444340710203

