%nproc=8
%mem=4000MB
#opt=(noeigen,calcfc,ts,recalc=5,maxcyc=200) freq B3LYP/SVP em=GD3BJ

ts-3142.gjf

0 2
Cl  -1.10007992512572  -9.14006969686672  3.83751217115468
C  -2.22179511856967  -0.22475189196620  -2.70297902979741
C  -2.20214544194093  -1.59152705644334  -3.10208347168832
C  -1.65716581044866  -2.46120871991226  -2.12751819145996
C  -0.86392930238748  -2.05395389516100  -1.06403419893366
C  -0.89186812902036  -0.73163300942864  -0.60959849192734
C  -1.67240955089114  0.08572492933697  -1.46194066679020
H  -2.51236350907744  -1.94629857579180  -4.06444789942852
H  -1.80232797598895  -3.51530356225789  -2.29983072966815
C  -0.69714292533934  -4.69877383134687  2.48753003643969
C  -1.93489786833871  -3.96523851843776  2.38701506628445
C  -0.44460920013862  -5.47084209845078  3.74442227254310
C  -1.82650874451810  -3.07914056439363  3.64521846590791
H  -2.82758720407144  -4.60750740685522  2.48169926986844
C  -0.72079276363427  -4.82979955383876  4.97726572225646
C  -1.35007103265017  -3.56682026868487  4.80515427944390
H  -2.32389052445900  -2.12245881231706  3.62150771908149
H  -0.43447809172619  -5.16386739035937  5.95432949793915
Cl  -2.70691607666724  1.18233396937382  -3.56777422698798
Cl  -1.49293771131596  -2.23807042462265  6.12439251804640
N  -0.02871394582866  -3.13647850703318  -0.48426835300788
C  -0.51551622986432  -3.54835860711928  0.62410836862970
O  -1.83673323664223  -3.27203447023643  1.03713673060802
N  0.09314742847915  -4.29019985521449  1.50805295250900
H  0.06848587788415  -6.41860856656852  3.80957775918232
H  -0.71006328642982  -0.32599924118891  0.38003662658336
Cl  -1.89480614515350  1.76273065511759  -0.87336352657291

