%nproc=8
%mem=4000MB
#opt=(noeigen,calcfc,ts,recalc=5,maxcyc=200) freq B3LYP/SVP em=GD3BJ

ts-3162.gjf

0 2
Cl  -1.51539713374428  -7.33281764470103  3.39458810656719
C  -1.95669816926894  -0.66695469922500  -2.95025868344791
C  -1.28070748025822  -1.69349220689130  -3.57926008638282
C  -0.81697799272602  -2.69598861196940  -2.85212678145673
C  -0.65425629886770  -2.62336794262999  -1.43975049009529
C  -1.04520716005643  -1.45393159398078  -0.78774391151153
C  -1.67655750064160  -0.48873033873590  -1.54841966938816
H  -1.29545166116015  -1.73647444149541  -4.65325478708824
H  -0.33006973125488  -3.51803033501377  -3.37354421636347
C  -0.24541938139909  -4.65232400371351  2.57762274292689
C  -1.63499593925056  -4.04863031925104  2.58976536516620
C  0.48176788169210  -4.61472665190034  3.78811151294949
C  -1.97536131219259  -3.11547725105758  3.71212993920581
H  -2.35098368755109  -4.96890729784487  2.50471030504682
C  -0.05223559293337  -4.04587101101457  4.87224143789212
C  -1.30827446483190  -3.28112058989051  4.88286059786463
H  -2.87623695592268  -2.57018224502840  3.91353206416466
H  0.48536147937152  -4.20622733832225  5.83389388454702
Cl  -3.01552538573837  0.33625224770026  -3.95055164040599
Cl  -1.69092594532309  -2.30292879578875  6.27840307665107
N  -0.00394582409756  -3.65237614720864  -0.59031594901776
C  -0.49829206944690  -3.90225014699276  0.60577985590896
O  -1.69388348784229  -3.51983203229115  1.18429848864927
N  0.20096902798485  -4.71822373364885  1.37170741812948
H  1.42604965548568  -5.13326733412245  3.74156117489381
H  -0.43674023318860  -1.15904817888765  0.06621383059793
Cl  -1.95603751469286  1.01371350251001  -0.82040524735552

