%nproc=8
%mem=4000MB
#opt=(noeigen,calcfc,ts,recalc=5,maxcyc=200) freq B3LYP/SVP em=GD3BJ

ts-3202.gjf

0 2
Cl  -2.71903519120442  -5.46790949481385  2.54188824317037
C  -1.71102208578995  -1.28476607076221  -3.52063390947854
C  -1.44737721555002  -2.64574031421700  -3.70468676384605
C  -0.64949804413239  -3.42905529028003  -2.84659998299355
C  -0.39014939751787  -2.87370638518037  -1.56855440420574
C  -1.22268681015116  -1.67075408170486  -1.21518967725509
C  -1.90986656397986  -0.88482262591041  -2.17093809687508
H  -1.64050071977092  -3.06019852800203  -4.67453579452910
H  -0.23617696970163  -4.38916403886116  -3.11973682678975
C  1.09637057606433  -2.97044438366460  2.47172063565328
C  -0.29412243548782  -2.88782586656846  2.36931215169515
C  1.62593914363107  -2.71878154874913  3.75465401511637
C  -1.15743679540919  -2.57293016862859  3.36827613549137
H  -2.16513510732783  -5.68898063481358  1.22371945413035
C  0.67726185124777  -2.75458605148114  4.86392991563417
C  -0.69487828234732  -2.72744450304480  4.63982436060145
H  -2.22444024132680  -2.43384030707895  3.25339977160224
H  1.00557830611821  -2.58150872119203  5.88583741965255
Cl  -2.10334906136192  -0.22471758708955  -4.81529950638223
Cl  -1.83869553285110  -2.28546731237216  5.91732076666738
N  0.40876791567147  -3.59955823301902  -0.82779850601852
C  0.57548755390919  -3.17544002807333  0.38764132392551
O  -0.58603097833616  -2.96622750197761  1.04528739333328
N  1.63989237721295  -3.10932685309835  1.21000735811582
H  2.53550766907763  -2.13593352446634  3.86380832050154
H  -0.86986028250216  -1.09844019243858  -0.36420852147317
Cl  -2.74443879448851  0.69032992331096  -1.60016386231853

