%nproc=8
%mem=4000MB
#opt=(noeigen,calcfc,ts,recalc=5,maxcyc=200) freq B3LYP/SVP em=GD3BJ

ts-433.gjf

0 1
Cl  2.40414601294800  0.33186791580104  -1.37732044927832
C  3.97019117854142  0.31907106091588  -4.63687868308961
C  2.64252555434498  0.36961015066166  -5.08788401220885
C  1.63964587102543  1.19545322064279  -4.72128842157173
C  1.82286157343905  1.94827907750921  -3.52635340547016
C  3.12739794422286  1.82337921044217  -2.95905650753219
C  4.16120019085764  1.06230514110565  -3.45774644523336
H  2.33292339093687  -0.34634706673959  -5.86778788535186
H  0.79827208621840  1.09481755769331  -5.40036817871721
C  -2.52671383319501  2.87180568782922  -3.55824783533505
C  -3.37932952298635  1.78311832424211  -3.88248362215401
C  -3.14071133656009  4.10130424482070  -3.15078568203376
C  -4.73945276098674  1.84560096226951  -3.47279436180029
H  -2.99772582223784  0.90215207278790  -4.38482999476633
C  -4.49167813437183  4.30144926565385  -2.98875666990177
C  -5.22200541800793  3.06245184328242  -3.02599001474103
H  -5.30128876734554  0.95457585680600  -3.38491505934261
H  -4.87468627408382  5.16832481821204  -2.48568092287569
Cl  4.94039066290935  -0.91398244947618  -5.13647281882142
Cl  -6.69552641805285  2.73658853586126  -1.99881008426742
N  1.03452596278479  2.84918661663016  -2.90025990631840
C  -0.22456822993161  3.24315801686822  -2.69392907893182
O  -0.57973098393708  3.99868095789549  -1.84834262445097
N  -1.18628394511978  2.62987377230752  -3.55769855388675
H  -0.87101289816439  2.10106963034266  -4.38178881607551
H  -2.44887074270160  4.92019564952043  -3.08685105712331
H  3.31582787262218  2.62569400233164  -2.22147853239130
Cl  5.61722559515265  1.38127278345300  -2.56036122450143

