%nproc=8
%mem=4000MB
#opt=(noeigen,calcfc,ts,recalc=5,maxcyc=200) freq B3LYP/SVP em=GD3BJ

ts-443.gjf

0 1
Cl  2.42531408538404  -0.43494290484256  -1.66218592560766
C  3.90061562041607  0.25788713830208  -4.48363092768251
C  2.53485094011810  -0.06424596793319  -4.78129627653622
C  1.50731111089715  0.77505614573261  -4.42317164494443
C  1.80065158056423  1.84148372188290  -3.50338795495390
C  3.11589930223495  2.10709830888687  -3.28185026709335
C  4.16709788796363  1.25369060735391  -3.56142892709128
H  2.33105259195138  -0.89372114938309  -5.44652684883334
H  0.49354120948798  0.58784241547442  -4.75561453915702
C  -2.64446432962686  3.02041223835676  -3.53865091997112
C  -3.64039163392347  2.65762673581591  -4.56649566852961
C  -2.97738530888074  3.69600100670830  -2.34455742621301
C  -5.00715966211118  2.70066367870859  -4.14915216695694
H  -3.32879994052080  2.19376325760981  -5.50536615552455
C  -4.24617019214207  3.46582341404954  -1.92783973923698
C  -5.29729961758892  2.97653306656966  -2.85323683836981
H  -5.75443553993186  2.41644076420742  -4.90290225261607
H  -4.45546749813797  3.75073564261793  -0.90788268564485
Cl  5.21558649217205  -0.84849148303349  -4.84481888521215
Cl  -6.85372029467139  2.63841648669839  -2.08856248957036
N  0.74715834015711  2.41328300002358  -2.93908594373253
C  -0.42360366398562  2.95340223059177  -2.73805359999110
O  -0.61567600406819  3.73195659335277  -1.77563809439195
N  -1.34782299591212  2.52199637553600  -3.69636806445590
H  -1.35023916356987  1.51762513112484  -3.87343607389303
H  -2.24611404316036  4.14912828127273  -1.64654148838545
H  3.27486545601483  2.95992589306390  -2.64136339884453
Cl  5.79896534318753  1.71220794400279  -3.22663551614958

