70
 energy: -143.159593506271 gnorm: 0.125966171832 xtb: 6.6.1 (8d0f1dd)
O    -2.45866567     0.64357727     0.40167010
H    -2.67535042     0.89465501    -0.49796633
H    -3.29483082     0.38147788     0.79086212
O    -4.59018888    -0.95320257    -2.60040087
H    -3.82224012    -1.30254184    -3.05598354
H    -5.18606609    -0.58132151    -3.25306686
O     0.14806403     0.00366700     1.39416398
H     0.63193731    -0.30572461     0.62638661
H    -0.70806665     0.20264555     1.01103716
O    -4.79450570    -0.52134838     0.07782317
H    -5.05002044    -1.36913186     0.44567416
H    -4.86153575    -0.69773641    -0.86224741
O     0.46710005    -1.21782757    -3.88918251
H     0.60287745    -0.76449447    -3.05528037
H     0.77077598    -0.74206764    -4.66427704
O     0.39335834    -3.56975966    -2.62059660
H     0.36967322    -2.88815784    -3.29453722
H    -0.46848078    -3.98296827    -2.54423274
O    -1.74294392    -4.81570911    -1.84024571
H    -1.78408153    -4.21963106    -1.09035499
H    -2.43316988    -5.47841380    -1.77901509
O    -2.39287735    -2.47149104    -0.16298620
H    -1.43717636    -2.39424055    -0.16546704
H    -2.69513848    -1.66266948     0.25388598
O    -0.11117294     0.13689089    -1.55950711
H     0.32602828     0.96070851    -1.33698021
H    -1.06799075     0.16415096    -1.61513438
O    -2.19424598    -1.76952359    -3.71987479
H    -2.04213576    -2.25173716    -2.90521481
H    -1.39929376    -1.63461699    -4.23870953
O    -0.34494262     3.13960801    -3.22581381
Cl    -1.70010608     2.13079108    -3.44256856
H    -0.00632204     2.84614529    -2.37152923
O     1.62236545     3.85329109     4.07559083
Cl     2.72499833     4.01420023     5.36379642
H     1.07584179     3.07370136     4.23095763
O     0.57858920    -2.25574806    -0.50376544
Cl     1.65914990    -2.73011143     0.72445758
H     0.55141321    -2.81919063    -1.28631261
O     0.52206535     1.43555104     3.54513423
Cl    -0.22962602     0.76233927     4.91732475
H     0.47834014     0.92210806     2.72962672
C     5.08459374    -0.14318695     0.70396930
C     4.99021104     0.60282959     1.87241857
C     4.06818893     1.63090032     1.92374781
C     3.12534564     1.86449107     0.91708365
C     3.17678942     1.05040430    -0.21407139
C     4.16477811     0.07793462    -0.31694288
H     5.76165804     0.44848995     2.61530732
H     3.94348464     2.20706467     2.83395601
C    -1.35561994     3.64979784     1.13105203
C    -1.95772196     3.94971981    -0.09344681
C    -2.11152880     3.47850711     2.29428821
C    -3.34304919     3.86500023    -0.15141713
H    -1.40161001     4.07781408    -1.00815844
C    -3.49511818     3.46049776     2.22781734
C    -4.09609970     3.69148411     0.99918029
H    -3.79974723     4.17408904    -1.08266694
H    -4.11677815     3.35439131     3.10706210
Cl     6.22251977    -1.45038474     0.66438693
Cl    -5.83305107     3.79254056     0.87505379
N     2.06259619     2.76015421     1.11172719
H     2.08060922     3.18033476     2.02763033
C     0.86909322     2.98827066     0.44514807
O     0.67854105     2.61850788    -0.68895935
N     0.04327826     3.73195083     1.26564966
H     0.37141574     3.83580094     2.21295583
H    -1.63131002     3.28699912     3.24830008
H     2.43946055     1.12617354    -0.99673997
Cl     4.20461940    -0.96057056    -1.70448346
