%nproc=8
%mem=4000MB
#opt=(noeigen,calcfc,ts,recalc=5,maxcyc=200) freq B3LYP/SVP em=GD3BJ

ts-4662.gjf

0 2
H  -0.27847305729376  -2.63367953752823  -0.74467959628969
O  0.48289489141191  -1.94205478609084  -3.10500861618081
Cl  0.26800535321021  -6.25087607160493  -0.26204829179647
H  1.20532781692677  -1.33470031773142  -3.40796607867575
C  -1.66400708697612  -3.34259554391010  -2.59139938478850
C  -2.97420127073443  -3.51979723411040  -2.06298539850550
C  -0.71744280574967  -4.08001741072263  -1.89400667705984
C  -3.27043873827450  -4.53487235635117  -1.21681144565447
H  -3.88598542975180  -3.06528477285376  -2.40979590871723
C  -1.00936179908304  -4.91219012430502  -0.74115096060982
C  -2.42502111381026  -5.47598175064997  -0.69833440862969
H  -4.35127004593862  -4.57543077317784  -1.09339586425470
H  -0.71573323208376  -4.46982323052629  0.20621879164620
Cl  -2.99807709919835  -7.02281415454020  -0.39369658557007
C  -0.67921849411077  -1.59043317358819  -3.73102686308054
O  -0.60523163435534  -0.64828344992271  -4.53912350043906
N  -1.61818141862939  -2.47651223143702  -3.61031264334658
H  0.19160157795039  -4.38662431999930  -2.33477563778398

