%nproc=8
%mem=4000MB
#opt=(noeigen,calcfc,ts,recalc=5,maxcyc=200) freq B3LYP/SVP em=GD3BJ

ts-4672.gjf

0 2
H  -0.09790743472565  -3.41874087251287  -1.02158078241599
O  0.62223839881362  -1.41508890820996  -3.04172792163770
Cl  0.21852247714143  -6.52571938695219  -0.18529732694968
H  1.19257496231703  -0.83258636343742  -3.60353304769308
C  -1.71751877179160  -3.30221791724995  -2.36599537347890
C  -2.91942168200276  -4.07697358862188  -2.63705496545759
C  -0.67330708776622  -3.98183423876613  -1.65151401135129
C  -3.13940316977891  -5.30631367180583  -2.06727630360454
H  -3.63304359902764  -3.69920867921786  -3.38182375176113
C  -1.23194734085286  -5.02676556198249  -0.68428190122693
C  -2.18344113462742  -5.97150217325141  -1.35540317050054
H  -4.06699704458754  -5.77876136173824  -2.29767529538844
H  -1.68022353539350  -4.66872450768987  0.26558823218784
Cl  -2.49248228948040  -7.36647468283984  -0.40306892093888
C  -0.68944821669749  -1.27751612047640  -3.43590681039883
O  -1.01459852969531  -0.59128521718618  -4.32006260234864
N  -1.60058316244016  -2.20776582405507  -3.10179809630749
H  -0.05664209954098  -4.52441493429376  -2.42195354196027

