%nproc=8
%mem=4000MB
#opt=(noeigen,calcfc,ts,recalc=5,maxcyc=200) freq B3LYP/SVP em=GD3BJ

ts-4722.gjf

0 2
H  -1.51338610854456  -2.94934432505155  -2.14805776060716
O  -1.75484234893447  -0.28079031378235  -4.82009776636346
Cl  2.44781578493201  -7.08305389701816  0.43455506438917
H  -1.87198505742889  0.56202396088647  -4.32705507105546
C  -1.57938577485759  -3.56832039740610  -4.19803910086324
C  -1.75156897513424  -4.68014356412678  -4.98926722266896
C  -0.98340485781745  -3.67761920151153  -2.77202049462999
C  -1.52281699866295  -5.82465623694439  -4.34328878003390
H  -2.24466144725544  -4.54610719949683  -5.95574566799273
C  -1.16481960051157  -4.94072777490687  -2.03582409561205
C  -1.30667704666812  -5.96494923763548  -2.92548260620023
H  -1.56161038925026  -6.70018423867071  -4.99349659261916
H  -1.47990763054426  -4.90381177761872  -1.01690246921673
Cl  -1.68954681477830  -7.55939801291115  -2.39334938968219
C  -1.82799900410518  -1.25490257414918  -3.96666101101767
O  -1.97681700801804  -1.21638349495461  -2.74903001748216
N  -1.71426832948174  -2.39484559953947  -4.68216366681420
H  0.03476754914735  -3.56076549081969  -2.89286253641443

