70
 energy: -143.139325121765 gnorm: 0.120925390536 xtb: 6.6.1 (8d0f1dd)
O    -0.51373940    -0.99007464    -0.50344564
H     0.06716997    -0.75488463    -1.22909568
H    -1.24652331    -0.38656023    -0.63811847
O    -4.69144179    -1.14569358    -2.17992424
H    -4.91669177    -0.54280756    -2.89064901
H    -4.09345672    -1.77639732    -2.58484981
O     0.50949878    -1.09672084     2.24223169
H     0.63150527    -2.04155003     2.35063298
H     0.08694566    -1.04096935     1.38334928
O    -2.98422498     0.10148014    -0.36910273
H    -3.79076974    -0.13457616    -0.83073240
H    -3.22024997     1.02800702    -0.29714020
O    -1.27424764    -1.25720185    -3.61417649
H    -1.20753592    -0.31773936    -3.43445734
H    -2.08634354    -1.55831728    -4.02547669
O     2.59318837    -3.40783518    -0.00843716
H     2.27495020    -2.79175095    -0.67063251
H     3.46053198    -3.20893802     0.34862647
O    -0.72917594    -3.52559017    -1.16935066
H    -0.65997604    -2.75542933    -0.60242819
H    -0.16170993    -3.35534625    -1.92323256
O    -2.36603645    -0.23980497     2.32855031
H    -2.78003273    -0.38583986     1.47613077
H    -1.43968006    -0.34862846     2.10638417
O     1.40673711    -0.71960853    -2.22599286
H     0.93125136    -0.93771393    -3.02953622
H     1.49790421     0.23206184    -2.15285004
O    -3.04971606    -3.23739581    -2.62729269
H    -2.35069979    -2.96688326    -2.02934825
H    -3.47333881    -3.89451519    -2.07224659
O    -1.44374677     1.40855316    -2.84773191
Cl    -2.99858641     2.09291648    -2.72410842
H    -0.90493375     1.90014213    -2.21637842
O     1.16472696     1.95535181     3.57330690
Cl     2.79034526     2.36091983     3.87997348
H     0.59900264     1.68521187     4.30649685
O     1.03103907    -3.75999327     2.00166551
Cl     0.81757829    -5.13284760     2.98699252
H     1.27650998    -3.97190343     1.09313690
O    -1.01532378     1.56817282     4.85913719
Cl    -1.77630542     3.08719408     4.98014217
H    -1.46261836     0.91071748     5.40527646
C     5.39255682     0.49344570    -0.59334096
C     4.78145070    -0.37086514     0.30679156
C     3.56926228    -0.03667810     0.88003424
C     2.81465702     1.02863418     0.37746933
C     3.35171455     1.81900539    -0.63829540
C     4.64732564     1.56618666    -1.07404308
H     5.36350583    -1.25921989     0.51384845
H     3.23143445    -0.63084783     1.72195476
C    -1.65797767     2.92410887     0.78312067
C    -1.66340932     3.73373597    -0.35545384
C    -2.77518982     2.78556527     1.61167352
C    -2.77951857     4.53131775    -0.57416138
H    -0.80731698     3.94029249    -0.97739139
C    -3.88493046     3.57362608     1.35380108
C    -3.83818919     4.49702819     0.31976708
H    -2.72873429     5.13412122    -1.47159335
H    -4.73395709     3.52904031     2.02309694
Cl     6.99386041     0.18646586    -1.18223708
Cl    -5.16786710     5.61058320     0.13383218
N     1.60584650     1.30832695     1.03327726
H     1.43357606     0.78026537     1.87424609
C     0.48649391     1.77520917     0.36254262
O     0.39828426     1.86182591    -0.83910246
N    -0.57010044     2.12417519     1.18112952
H    -0.50175011     1.81120356     2.13675760
H    -2.72210331     2.05805343     2.41499935
H     2.82710070     2.63850825    -1.10214916
Cl     5.32861843     2.53954957    -2.33648278
