70
 energy: -143.150504398540 gnorm: 0.105197139500 xtb: 6.6.1 (8d0f1dd)
O     1.36228726    -5.28780904     1.19861944
H     1.76486038    -5.88369165     1.83280932
H     1.05171135    -5.80658732     0.45447537
O    -1.24715121     0.77897781    -2.08373370
H    -0.65648888     1.53276437    -2.03616671
H    -1.77815143     0.77899170    -1.28537486
O    -0.77779664     0.47381615     3.63086034
H    -1.49904158     0.21558590     3.05426561
H    -0.20518550    -0.29369602     3.67964478
O    -1.81756383    -0.70755749     1.50503881
H    -2.19949623    -0.44661576     0.66517214
H    -1.11004651    -1.29582667     1.23541484
O    -0.43085771    -2.05121279    -2.11901772
H     0.50364489    -2.10149806    -2.32762132
H    -0.69002603    -1.13204141    -2.20442182
O    -2.43615963    -1.97165145    -4.07534651
H    -2.28776456    -1.26146792    -4.70220872
H    -1.60225078    -2.06326935    -3.61108189
O     0.21508427    -2.38426116     0.71000315
H     0.01883139    -2.31027487    -0.22559734
H     0.05688707    -3.27192856     1.03613016
O    -4.51264761    -1.50691787    -2.09730758
H    -3.99615280    -1.61351927    -2.89806187
H    -5.41183207    -1.32918929    -2.37876161
O     1.55528950     0.11910143    -4.17215602
H     1.79670653    -0.68576881    -4.63393553
H     2.38051599     0.60683138    -4.15074223
O    -3.38371733     0.11984305    -0.51749725
H    -3.78503157    -0.57082368    -1.04784118
H    -4.10586881     0.64930490    -0.17470623
O    -3.41414604     0.91976449    -4.06013890
Cl    -3.86643418     2.46163894    -3.49514258
H    -2.66302126     0.59469239    -3.54952544
O     2.26774244     3.04339364     3.51027159
Cl     2.44888918     1.69429232     4.53412517
H     1.53819524     3.48381530     3.96235206
O     1.47552731    -1.31217747     2.98880436
Cl     2.99107243    -1.97218892     3.39950094
H     1.26205112    -1.63797101     2.10626676
O    -0.16807503     2.99748619     5.06137360
Cl    -1.66351242     3.76006150     4.77274450
H    -0.20982253     2.09589126     4.72082728
C     5.28243420    -0.36824733    -0.41654698
C     5.37566944     0.39867660     0.73838044
C     4.28600968     1.10521825     1.21074619
C     3.04496602     1.01807443     0.57113113
C     2.97459285     0.30271766    -0.62394534
C     4.08836670    -0.35623142    -1.13158239
H     6.33410664     0.51394439     1.22720184
H     4.44809737     1.72867727     2.08311189
C    -1.47599982     2.93693886     0.89882692
C    -1.65267264     3.67156689    -0.27632662
C    -2.52989020     2.72978206     1.79339847
C    -2.92086171     4.18284191    -0.52120179
H    -0.83658579     3.95311503    -0.92215857
C    -3.78304526     3.25340132     1.52047435
C    -3.99673302     3.85224688     0.28767101
H    -3.15175142     4.73511321    -1.42287887
H    -4.59361533     2.99982703     2.19089757
Cl     6.71820648    -1.09018983    -1.06659733
Cl    -5.55570331     4.41624539    -0.25467319
N     1.90627544     1.72520053     0.98693325
H     1.88532652     1.93933566     1.97154587
C     0.75457753     2.00551498     0.26872023
O     0.69524002     2.15330173    -0.92872390
N    -0.28321045     2.23325716     1.15154696
H    -0.27818788     1.91014468     2.10623076
H    -2.41338279     2.15435996     2.70594408
H     2.01727665    -0.01701903    -1.00246757
Cl     4.04809322    -1.20813789    -2.64088111
