70
 energy: -143.132634583288 gnorm: 0.110972755286 xtb: 6.6.1 (8d0f1dd)
O     0.94299564    -2.72662247     0.25470658
H     0.23145128    -2.09642075     0.12865722
H     0.84151535    -3.26022895    -0.53542287
O    -2.36894270     0.72634651    -4.42485619
H    -2.21446614    -0.21893309    -4.46869981
H    -1.56524594     1.13890820    -4.10360482
O    -0.43905548    -0.37626338     3.24873191
H    -0.52495761    -0.08767171     4.15904740
H    -0.51108336    -1.32369699     3.37726166
O    -1.30047029     0.78633960     5.71398061
H    -0.68376903     0.54480805     6.40729226
H    -2.07863420     1.18143679     6.11109219
O     1.73817689    -1.02351204    -1.97435094
H     1.04522669    -1.68295078    -2.03992354
H     2.49692206    -1.59859637    -1.86067641
O    -0.95398110    -3.61542769    -1.47561481
H    -1.02483088    -4.07156758    -2.31600441
H    -1.67256626    -2.98472881    -1.40354718
O    -1.47722414    -0.12069299    -1.47167253
H    -1.09979567     0.57233584    -0.92706604
H    -1.03632509    -0.22550122    -2.31663516
O    -2.44529701    -2.31862648    -4.59472105
H    -3.17906343    -2.72884615    -5.05585535
H    -2.79675973    -2.47633546    -3.71669009
O     0.35783484     0.88818769    -3.50084689
H     1.14826128     0.34615386    -3.52848686
H     0.39537807     1.39507098    -2.68782926
O    -3.31036434    -2.28441132    -1.80146604
H    -3.21590204    -1.34796822    -1.61846455
H    -4.12646099    -2.43006052    -1.31968718
O    -4.10087065     0.43840746    -2.36705364
Cl    -4.21830597     1.88424754    -1.47435121
H    -3.75807466     0.70560345    -3.22826419
O     1.95212545     2.60620352     4.40299781
Cl     2.65859444     2.40710082     2.86597981
H     1.03102639     2.80990190     4.20132831
O     0.41819046    -3.19130402     2.83060569
Cl     1.25022620    -4.18056598     3.93976805
H     0.73556115    -3.22816912     1.92038433
O    -0.72972135     3.05874962     3.84071959
Cl    -1.36985210     4.51948497     4.43875446
H    -0.87926988     2.31180186     4.43257460
C     5.05694250    -1.02195940    -0.19751488
C     4.32905340    -1.49547892     0.88723356
C     3.08625875    -0.94307547     1.13218410
C     2.67216381     0.25450071     0.53953959
C     3.47412332     0.81635592    -0.45347356
C     4.60070064     0.11228704    -0.86275587
H     4.72163430    -2.38336035     1.36512654
H     2.43222019    -1.34635010     1.89742826
C    -1.40691188     3.02020122     0.47673950
C    -1.36828175     3.81136284    -0.67410733
C    -2.48831091     3.08406267     1.36011653
C    -2.42335432     4.63689923    -1.04150501
H    -0.62208951     3.75358535    -1.45013885
C    -3.49797790     3.98000502     1.04879322
C    -3.46064730     4.71703679    -0.12571650
H    -2.44920953     5.20315140    -1.96347312
H    -4.38564651     3.98692305     1.66749156
Cl     6.63813267    -1.63189097    -0.56224709
Cl    -4.92385460     5.60314221    -0.46698102
N     1.37371950     0.70932772     0.81650481
H     0.89167098     0.29012229     1.59602437
C     0.78461341     1.78702348     0.17436774
O     1.20379978     2.30049660    -0.83551465
N    -0.38664012     2.11630131     0.82858076
H    -0.48543667     1.75473018     1.76418410
H    -2.59083708     2.32366049     2.12738503
H     3.22529134     1.79920230    -0.81961641
Cl     5.39957363     0.75615491    -2.26010526
