%nproc=8
%mem=4000MB
#opt=(noeigen,calcfc,ts,recalc=5,maxcyc=200) freq B3LYP/SVP em=GD3BJ

ts-1513.gjf

1 2
O  2.16619986992049  -3.11525809370225  -1.33866693062421
H  2.25866900713297  -4.05899359860485  -1.07667992350842
O  -3.91323258741383  -3.75720551689865  -5.28086940843209
H  -4.02233737910693  -4.73252914550379  -5.36754561339354
C  0.89503072893097  1.86907252503883  2.86924004752355
C  1.83814802604388  0.83301159261724  2.42461933118400
C  1.81476104653994  0.36232056040451  1.10150131701009
C  0.75223559914635  0.85715262028038  0.32774602068169
C  -0.16138443757858  1.90013569277387  0.57748363002286
C  -0.07353608168360  2.23801624387410  1.92825728352690
H  2.66713371335053  0.41486619048146  3.00077641393675
H  2.47025155894831  -0.45355336762490  0.86783389483341
C  -1.90289118165123  -2.16396814217580  -1.82762409954376
C  -1.47395446058672  -2.14262092345000  -3.15532596873954
C  -3.06597787684848  -2.98197790806908  -1.67676043622831
C  -2.08503787614466  -2.70588978271173  -4.26290572850697
H  -0.49487399561000  -1.69880160603639  -3.29162202568816
C  -3.96635370310698  -3.26455508075514  -2.74505985216371
C  -3.40545296830777  -3.26284968311766  -4.10997770156081
H  -1.71167718712856  -2.67087071302176  -5.28485321937905
H  -5.03439771310476  -3.59606426812404  -2.73026696665066
Cl  1.18621244083688  3.00588007779484  4.06816489625273
N  0.33810516519450  0.09618496516587  -0.73886773702846
H  1.01672211771895  -0.53981459487471  -1.10793983132796
C  -1.08384246911527  -0.22928037890123  -1.00950545197650
O  -1.83446953402645  0.66039119148247  -1.22760840245095
N  -1.18055439493136  -1.58456847704071  -0.90075122118480
H  -3.55112338573816  -3.02673302986596  -0.66656626275596
H  -0.98490682933716  2.26965065292329  0.02067394611076
Cl  -1.86289750723493  2.54976978718255  2.47790851215084

