%nproc=8
%mem=4000MB
#opt=(noeigen,calcfc,ts,recalc=5,maxcyc=200) freq B3LYP/SVP em=GD3BJ

ts-1533.gjf

1 2
O  1.66163468642882  -1.31408636198316  -2.37360006303877
H  1.79193522611815  -2.13350623328906  -2.89116541014849
O  -3.46016774122254  -4.07387784798069  -4.64639341425141
H  -3.56839865758627  -4.96960270323084  -4.94911914733084
C  1.00869905636451  1.75828948301017  3.06985433767560
C  2.15787628112262  1.41490229021080  2.37606914670046
C  1.99759398665463  0.85926915382641  1.15913151768212
C  0.65620303524935  0.80275198429670  0.53189514420547
C  -0.48431719936958  1.22553560366649  1.17071383073099
C  -0.26157804654269  1.88584053275738  2.32984417707007
H  3.00396944354452  1.75653893096669  2.98336416445200
H  2.81683360012208  0.57344965441742  0.51938778645582
C  -1.57084874114435  -2.14167923848521  -1.57308604488745
C  -0.93699305676568  -2.55022497866112  -2.84632054141834
C  -2.54423459346800  -3.09552758446313  -1.13791212070281
C  -1.46886576321486  -3.45199708795659  -3.78054619419488
H  -0.24227622783235  -1.85826391012111  -3.31344291885259
C  -3.27920996100389  -3.79941751449831  -2.11872268953015
C  -2.78817178646515  -3.88720957940739  -3.53670349779940
H  -1.02987651827021  -3.61825348168453  -4.73071821994901
H  -4.04820355279032  -4.46650710394219  -1.70216314316633
Cl  1.05438479734079  2.29510906999644  4.61015899072845
N  0.52765510357158  0.41604027623104  -0.79160763798776
H  1.29839203566205  0.18176300134472  -1.40866402434598
C  -0.63661927854305  0.02889199158751  -1.61967015725947
O  -0.80700267303504  0.54493066378977  -2.65431427178691
N  -1.37652288149239  -0.97303699369101  -1.12143510439589
H  -2.57903300788126  -3.38665081815161  -0.09201066044330
H  -1.40928895173759  1.23400876430245  0.61834741355244
Cl  -1.09173267947399  3.40640704214784  2.63070565381494

