%nproc=8
%mem=4000MB
#opt=(noeigen,calcfc,ts,recalc=5,maxcyc=200) freq B3LYP/SVP em=GD3BJ

ts-1407.gjf

0 2
O  -5.02516045772831  -0.14954797532587  -2.38751414779467
H  -4.33978382208028  -0.79356877366193  -2.75923817578543
O  0.52714964023060  2.06889644885837  -3.73515227225393
Cl  -0.60857776781702  0.86238902930377  -4.15395931401348
H  0.97429262848063  1.89054222169747  -2.81497946664211

