%nproc=8
%mem=4000MB
#opt=(noeigen,calcfc,ts,recalc=5,maxcyc=200) freq B3LYP/SVP em=GD3BJ

ts-1437.gjf

0 2
O  -3.31947943453145  0.40443482876918  -1.65659232194244
H  -3.61448524863743  0.40956263521259  -0.73327047287512
O  0.08469630544605  0.79787680586288  -3.39125459034600
Cl  -0.93305706599273  1.40396979966854  -4.29280639633343
H  -3.86628333029723  0.74003721537954  -2.33398794579211

