%nproc=8
%mem=4000MB
#opt=(noeigen,calcfc,ts,recalc=5,maxcyc=200) freq B3LYP/SVP em=GD3BJ

ts-1447.gjf

0 2
O  -4.78079439983439  0.71452762664024  -0.76422029167427
H  -3.99940067288477  0.56756848059795  -0.26174556339622
O  0.73761211878159  1.10570329464437  -4.41428850806233
Cl  -0.69101995901784  1.61005233555974  -4.12084290440566
H  -5.62538260802586  0.64693818068872  -0.15475108947981

