70
 energy: -143.152357945497 gnorm: 0.106903834383 xtb: 6.6.1 (8d0f1dd)
O     0.04075019    -1.23493582     2.64161958
H     0.69216885    -1.93593489     2.58168586
H    -0.65266833    -1.45703030     2.01777386
O    -3.36134498    -0.36843944    -2.30363916
H    -3.28236470    -1.32351152    -2.27300832
H    -2.43794831    -0.12531817    -2.39063758
O    -2.53480061    -3.21707558    -2.10498025
H    -1.81729694    -3.31928537    -1.47722213
H    -2.87988085    -4.08688275    -2.31401011
O    -0.93634534    -0.88201921    -0.18348274
H    -0.26826631    -0.19504310    -0.15072289
H    -0.57753641    -1.60951981    -0.69469453
O    -3.17407340    -0.58856947     1.52174358
H    -3.93183222    -0.35603970     0.98223392
H    -2.38663152    -0.54214041     0.97665851
O     2.12627879    -1.16592314    -1.81783940
H     1.38019261    -1.25928636    -2.41279881
H     2.35742906    -0.23543971    -1.82830803
O    -0.03833673    -3.85635595    -0.17693837
H     0.76306341    -3.38490448     0.05721707
H     0.06534918    -4.79447891    -0.00808007
O    -0.53871189    -0.02171528     4.77835524
H    -1.12457886     0.73132578     4.68334350
H    -0.51283168    -0.55953258     3.98499575
O     0.46891437     1.49052300    -4.36537272
H     0.70758171     2.06112787    -3.63271551
H    -0.16142018     1.99220490    -4.88530680
O    -0.36959255    -1.10847248    -3.08390282
H    -0.18989196    -0.40128500    -3.70594133
H    -1.14847202    -1.58987003    -3.36840498
O    -5.49446135    -0.52684090    -0.66982783
Cl    -5.85391448     1.13495064    -0.77183044
H    -4.70397486    -0.54958647    -1.22227706
O     1.09437251     2.20599564     4.06486960
Cl     0.42183417     3.55825148     4.85243609
H     0.69790535     1.41392894     4.44700995
O     2.49504395    -1.64652328     0.76229380
Cl     3.71518982    -2.77134412     1.14594200
H     2.35849336    -1.47360479    -0.17687565
O    -2.57206840     1.65362577     3.01590025
Cl    -3.72455837     2.85923936     2.67032305
H    -2.74972363     0.85107362     2.51098766
C     5.74106499    -0.32976120     0.59822774
C     5.36182861    -0.06464785     1.90842512
C     4.23579721     0.67281856     2.22129168
C     3.41533396     1.21104938     1.22427690
C     3.84698613     1.06875769    -0.09417861
C     4.96954710     0.29846115    -0.37507288
H     5.92808711    -0.53921226     2.69897862
H     3.99583951     0.83072423     3.26698837
C    -0.98910711     3.19508365     0.33569138
C    -1.29625438     2.59076332    -0.88592020
C    -1.73662235     4.26173528     0.84297066
C    -2.46116340     2.98283544    -1.53317277
H    -0.64538308     1.83635228    -1.29774114
C    -2.76179355     4.79613500     0.07975171
C    -3.12213158     4.10986757    -1.07058560
H    -2.74124391     2.58412516    -2.49956822
H    -3.32729255     5.63540473     0.46267233
Cl     7.05602826    -1.30939882     0.03574198
Cl    -4.32627957     4.72965327    -2.16990953
N     2.23547920     1.92091762     1.49550516
H     1.97682035     2.26132970     2.40817702
C     1.19130744     1.95735263     0.58490538
O     1.13518154     1.30931810    -0.43300197
N     0.17209595     2.78366495     1.01695769
H     0.31264698     3.21572876     1.91663222
H    -1.45813172     4.55672184     1.84937510
H     3.38151771     1.53697361    -0.94628069
Cl     5.54175324     0.21901086    -2.00958108
