70
 energy: -143.140480752105 gnorm: 0.122226886007 xtb: 6.6.1 (8d0f1dd)
O    -0.21843860    -1.44559843     2.81273322
H    -0.65138671    -2.17269847     3.26353195
H    -0.81694613    -1.20360978     2.10381227
O    -3.66065008    -2.10474860    -1.76213754
H    -3.01638047    -2.38673949    -1.11041935
H    -3.80400991    -2.77902730    -2.42857152
O     0.07545323    -5.23546618    -1.52624307
H     0.78932907    -4.76540001    -1.09178053
H     0.23144284    -5.14751719    -2.46819348
O    -1.48000257     0.30494832    -1.22850032
H    -0.55767201     0.56256710    -1.27622751
H    -1.65961557    -0.62108506    -1.05662888
O    -3.31856164     1.12136121     0.54753980
H    -4.19731007     1.01838574     0.17803143
H    -2.74534063     0.96852505    -0.20571772
O     1.67033696    -1.19175835    -2.26149334
H     1.19818188    -1.69247164    -2.92909634
H     2.59411608    -1.16165995    -2.51657307
O    -1.16028436    -2.86424407    -0.77241094
H    -1.08371014    -3.81552316    -0.67998843
H    -0.34746752    -2.44812334    -0.47998843
O     1.02082631     0.75505314     4.63391847
H     0.34791794     0.63687122     5.30664838
H     1.00907662    -0.10644042     4.21317234
O    -1.19995956    -0.27905568    -4.07319229
H    -1.67959035    -0.03050739    -3.28103281
H    -0.32327529    -0.32472648    -3.68760614
O    -0.01835296    -2.71424607    -3.48125030
H    -0.66860509    -2.07988347    -3.78799873
H    -0.36483525    -3.01860375    -2.64062272
O    -4.78526808     0.32762812    -2.28879923
Cl    -4.35736824     0.46782917    -3.93148228
H    -4.67597537    -0.60090882    -2.05118469
O     1.13224755     3.33225262     3.80206627
Cl     0.62067138     4.51343567     4.91753078
H     0.69309053     2.56275800     4.18365012
O     1.26533845    -2.07361504     0.08518322
Cl     2.50926606    -2.26900642     1.23219244
H     1.65421136    -1.78861415    -0.75036360
O    -2.61108648     0.63229828     2.97188196
Cl    -2.29456720     1.88472315     4.08202084
H    -3.02375239     1.07686580     2.22177888
C     5.56912654    -0.37994889     0.72138243
C     5.29497709     0.27653186     1.91494749
C     4.23238995     1.14530339     2.07567547
C     3.35683064     1.22889948     0.98788025
C     3.58071608     0.65146074    -0.26165376
C     4.70230650    -0.16541244    -0.34623843
H     6.06873260     0.17234563     2.66413540
H     4.02725878     1.60194260     3.03765120
C    -0.96507823     3.60432474     0.67314782
C    -1.32660464     3.68838741    -0.67374103
C    -1.77671645     4.09105395     1.70183398
C    -2.57183110     4.21855253    -0.98679942
H    -0.69056864     3.36301946    -1.48118137
C    -2.90291145     4.82995497     1.37814828
C    -3.32088052     4.73471530     0.05893875
H    -2.95324244     4.22006501    -1.99964605
H    -3.53560763     5.33030519     2.09935300
Cl     7.09272563    -1.15953186     0.44551170
Cl    -4.89431722     5.46870061    -0.10893750
N     2.26687416     2.09833727     1.14790440
H     2.23217202     2.57057619     2.03759024
C     1.15646044     2.34647394     0.35656142
O     0.97438403     1.98968164    -0.78307963
N     0.25373061     3.06025163     1.12066461
H     0.40583445     3.19866387     2.10735327
H    -1.48938380     3.98564696     2.74286874
H     2.91545366     0.83484117    -1.08976152
Cl     4.91840427    -1.07384424    -1.80685564
