70
 energy: -143.142302694907 gnorm: 0.131734623190 xtb: 6.6.1 (8d0f1dd)
O     1.57749619    -5.09587592     0.86687391
H     1.58172232    -5.22303270     1.81721665
H     2.10310151    -5.79530392     0.47460078
O    -1.32840259     0.51063735    -2.22603276
H    -0.64041138     1.12744906    -1.97000502
H    -1.97570447     0.47109665    -1.51979280
O    -0.34558222     0.78873717     3.49673797
H    -0.80207297     0.37265156     2.76337068
H     0.56895234     0.51426185     3.40939849
O    -1.58173529    -0.39379335     1.45727328
H    -2.24073664    -0.11353092     0.81969257
H    -1.24710657    -1.24603559     1.17258884
O     0.14590946    -2.13095888    -2.16395046
H     1.02097978    -2.27038592    -2.53021708
H     0.01635294    -1.18322614    -2.22994945
O    -2.21032102    -1.93022190    -4.10640190
H    -2.40173473    -0.99309925    -4.03932052
H    -1.37006415    -2.14728545    -3.69873626
O     0.38955855    -2.61326121     0.66880572
H     0.33645807    -2.60780535    -0.28852809
H     0.79603538    -3.43321914     0.95478502
O    -4.42445661    -1.83896691    -2.02561631
H    -3.51064118    -2.10973342    -2.13033042
H    -4.91720736    -1.98859795    -2.83440785
O     1.43571569    -0.10590677    -3.53319116
H     2.31746679     0.23440136    -3.69457261
H     1.10741981    -0.46966658    -4.35735038
O    -3.43565613     0.67045026    -0.69686014
H    -3.86848800    -0.13712105    -0.97939066
H    -3.79267985     1.42427529    -1.16974510
O    -3.20514157     1.20130290    -3.78204087
Cl    -3.80729717     2.71049428    -3.27124516
H    -2.32463409     1.00461576    -3.44056297
O     2.05434702     2.99241871     3.70633719
Cl     2.69931878     1.57537409     4.39710533
H     1.32461740     3.31476598     4.24871529
O     1.16856127    -0.99776479     2.49207103
Cl     2.60613219    -1.55460574     3.21628222
H     0.86837288    -1.65768275     1.85568959
O    -0.13574550     2.72614155     5.18939958
Cl    -1.36283489     3.71660972     4.54567194
H    -0.27381010     1.87978845     4.74757081
C     5.23965994    -0.26214567    -0.46379175
C     5.18796847     0.52857157     0.67761822
C     4.02663464     1.06706463     1.19821199
C     2.86632519     0.92242095     0.43032461
C     2.82688154     0.15222794    -0.73163167
C     4.03478886    -0.39576709    -1.14763985
H     6.08108151     0.53940388     1.28841005
H     3.92893226     1.53477804     2.17170769
C    -1.48335735     3.13233905     0.98064739
C    -1.80991840     3.75974843    -0.22417327
C    -2.57134648     2.73853572     1.76490228
C    -3.10111153     4.16041845    -0.54347465
H    -0.99726489     3.96699639    -0.90167499
C    -3.88675643     3.06733930     1.48091783
C    -4.12498059     3.70880731     0.27433151
H    -3.28713590     4.71925343    -1.45145791
H    -4.67763113     2.78262885     2.16227548
Cl     6.62551267    -1.23136458    -0.84488939
Cl    -5.72058359     4.22288709    -0.20774001
N     1.69033217     1.36106214     1.05815364
H     1.80939218     1.54310213     2.04224758
C     0.58325740     1.86751010     0.39580169
O     0.41229485     1.76434443    -0.79556851
N    -0.18697201     2.64702563     1.23684606
H    -0.21691425     2.29950263     2.18245659
H    -2.24013595     2.33652143     2.71679941
H     1.98010186     0.29684647    -1.38279571
Cl     4.08013087    -1.39692798    -2.56219638
