70
 energy: -143.090459314374 gnorm: 0.108919460571 xtb: 6.6.1 (8d0f1dd)
O     0.17266096    -4.48342399    -2.99515363
H    -0.58269183    -4.67654446    -2.43704551
H     0.20320631    -3.55358115    -3.22709749
O     0.82755729     0.72192734    -2.53658092
H     0.99855820     1.19847217    -1.72233126
H     0.03609495     1.13027512    -2.89179569
O     0.27131227     3.15597349     5.54956535
H    -0.17632270     3.16198625     4.70167066
H     0.84925061     3.91565192     5.64019820
O     0.61625614    -0.19131404     4.83925634
H     0.55055920     0.42856611     5.56779699
H     1.47806236     0.02720139     4.48025844
O    -3.15357366    -1.39356527    -0.45179200
H    -2.58698308    -2.13829940    -0.24278151
H    -3.76465565    -1.22949760     0.26862365
O    -1.04874725    -1.85900427    -4.32789948
H    -1.49134755    -1.25321824    -3.73085154
H    -1.68212684    -2.42559722    -4.77190644
O     0.59386305    -5.52521238     0.49829400
H     0.94462397    -6.35173549     0.16189577
H     0.63802372    -4.90567069    -0.23215553
O    -0.74035978    -0.43715110    -0.28529859
H    -1.66721929    -0.61267137    -0.11365283
H    -0.38031676    -1.17842250    -0.77542332
O    -0.07849362     4.01255537    -2.15720832
H     0.42322492     3.54654008    -1.48605494
H    -0.66053628     4.68221295    -1.79372121
O     1.56225867    -1.97532410    -2.00191018
H     2.09781175    -2.65441562    -2.41586180
H     1.37222167    -1.20794613    -2.54445538
O    -2.71674345    -0.14919640    -3.03459120
Cl    -4.10673308     0.77005864    -3.38681441
H    -2.70024952    -0.54233171    -2.15381939
O    -0.03426118     5.17600570     0.95072747
Cl     0.47633434     4.93251459     2.55732914
H     0.28385442     4.38359427     0.50186926
O    -2.01411941    -1.61211370     3.04616338
Cl    -1.24762271    -2.88320850     2.21072059
H    -1.32080714    -1.10862490     3.48933745
O     2.65476485     2.51424524     3.34331720
Cl     4.34706881     2.57214945     3.15915635
H     2.49721687     3.41315771     3.65592409
C     4.75367059    -0.70004509     0.21027211
C     4.05197071    -1.45059035     1.14569796
C     2.79499447    -0.98482030     1.48149233
C     2.26944815     0.26155058     1.12476900
C     3.03951571     1.07228046     0.29133728
C     4.24001499     0.53854918    -0.16290257
H     4.47056064    -2.40550058     1.43511774
H     2.17962971    -1.59061675     2.13748956
C    -2.25958899     2.10692400     1.12087771
C    -2.19606176     2.93378497    -0.00346329
C    -3.44882039     1.91664603     1.83037058
C    -3.36879808     3.47213549    -0.51779566
H    -1.22946764     3.01822256    -0.47349744
C    -4.59201466     2.55081586     1.37211540
C    -4.54709120     3.25899048     0.18024581
H    -3.22779033     3.99963112    -1.45224758
H    -5.47666782     2.45225648     1.98731121
Cl     6.26109715    -1.22554753    -0.46553911
Cl    -6.00825719     3.81796358    -0.59122222
N     0.94866307     0.55233615     1.49960960
H     0.57104852    -0.14439162     2.12229120
C     0.17080989     1.57165533     0.97354210
O     0.56462114     2.41296583     0.20130921
N    -1.08631681     1.44669579     1.53235422
H    -1.31594729     0.61937755     2.06023906
H    -3.45263702     1.18524086     2.63190408
H     2.66966247     2.02467156    -0.05235547
Cl     5.05833077     1.36821403    -1.44639964
