70
 energy: -143.121086544257 gnorm: 0.118409388241 xtb: 6.6.1 (8d0f1dd)
O    -3.64416195    -1.21120739     3.62217771
H    -4.30971623    -1.55126637     4.22279024
H    -3.59858757    -1.95286550     3.01620337
O    -3.33624626    -1.16521184    -1.62890122
H    -3.41420338    -0.21325531    -1.54499496
H    -3.34370136    -1.42587267    -0.70622120
O    -1.21484970    -0.21477678     2.45635814
H    -1.12125794    -0.94945130     1.84739793
H    -2.04363724    -0.50931828     2.83805813
O    -2.81432221    -2.24452359     1.35328637
H    -3.42376653    -2.81453570     0.88105466
H    -2.02146918    -2.62867374     1.73163964
O     0.31543074    -2.95210875    -1.99410107
H     0.06512789    -2.47459353    -1.20121590
H     0.41428159    -2.33100964    -2.71784310
O     1.45338844    -4.45943106     0.65653881
H     1.40961182    -4.31271749    -0.28997939
H     2.24880289    -4.23356801     1.14196768
O    -2.42910174    -3.97942727    -2.36985846
H    -1.48021325    -3.84383274    -2.39356906
H    -2.77707900    -3.09331502    -2.48411914
O    -3.84101844    -4.24634438    -0.08794441
H    -3.53743654    -4.93752193     0.50319837
H    -3.47706554    -4.36940369    -0.96642674
O    -0.68045778    -0.46336960    -1.08747471
H    -1.27620585    -1.20680972    -1.19573188
H    -0.83627091     0.13316595    -1.82178079
O    -3.72347310     1.45197667    -2.67876698
H    -3.27129196     2.29383364    -2.75717233
H    -4.64834863     1.49582187    -2.92780745
O     0.46629574     3.18464716    -3.31879203
Cl    -0.93291775     4.15289882    -3.39529384
H     0.66493136     3.21600374    -2.37531597
O     0.64295649     5.09776406     1.94487152
Cl     2.08510232     4.67555285     2.74681775
H     0.65472726     4.64872253     1.09116768
O    -0.45340641    -3.38047549     2.32274986
Cl     0.43618298    -2.74971085     3.63115748
H     0.21759119    -3.69472166     1.70501392
O     0.49946925     1.29956521     4.04432478
Cl     2.03281334     0.55802927     4.03244314
H    -0.12092082     0.78776218     3.51163171
C     5.21530417    -0.40600784    -0.22394958
C     4.22877992    -1.18268209     0.37125604
C     2.97161121    -0.76768345     0.76747822
C     2.57310590     0.52076936     0.39602986
C     3.49494415     1.29771621    -0.30501471
C     4.80371913     0.88754087    -0.53143462
H     4.52131822    -2.14410272     0.77241274
H     2.24245853    -1.35143547     1.31844602
C    -1.80441796     2.81364342     0.61636286
C    -1.82323327     4.11585643     0.11063096
C    -3.00709532     2.11160579     0.73705879
C    -3.02564428     4.66815021    -0.31227433
H    -0.90982300     4.65688556    -0.07734558
C    -4.19343759     2.60986321     0.22383962
C    -4.19467797     3.93349739    -0.19097786
H    -3.05994015     5.66225279    -0.73879404
H    -5.08779073     2.00431680     0.15874683
Cl     6.66505538    -1.14438233    -0.82247549
Cl    -5.64759211     4.66982288    -0.81506535
N     1.34243187     1.06330932     0.79681280
H     0.89598788     0.57737557     1.55859423
C     0.63661424     2.20280803     0.44442318
O     1.02868076     3.09376491    -0.27091874
N    -0.62862449     2.13849928     0.99513982
H    -0.83411036     1.40341461     1.65337547
H    -2.89892882     1.09144660     1.09061119
H     3.29380879     2.29699812    -0.65565027
Cl     5.91451996     1.83642955    -1.46475196
