%nproc=8
%mem=4000MB
#opt=(noeigen,calcfc,ts,recalc=5,maxcyc=200) freq B3LYP/SVP em=GD3BJ

ts-1864.gjf

1 1
O  -0.44426793883956  -4.87462216876143  3.13991261542266
H  0.30821136818516  -5.44178130952227  3.58415844570282
C  0.98039368365489  2.56365287144319  -3.84263210452231
C  -0.37545569487809  2.42249941202500  -3.48392771555475
C  -0.65030635491251  1.42787016116790  -2.56343985556446
C  0.18667175564004  0.66607217946403  -1.77829392646207
C  1.54649883623686  1.04450402806500  -1.79524153229723
C  1.81364665245880  2.11953981098233  -2.77071614953957
H  -1.14422787539205  3.00727755326638  -3.99946945996543
H  -1.68813165870877  1.41793104920014  -2.25890701315945
C  -2.08504705494614  -3.26559301257819  0.12029306575795
C  -0.37091043883461  -4.24405218706670  1.83659390671400
C  -3.57703670889629  -3.61365909751189  0.40719854130115
C  -1.59580370280825  -3.45879825935552  1.57978749976504
H  0.60668405003804  -4.36879801811295  1.49179689520216
C  -3.58715000274165  -4.07182249976840  1.83486922462187
C  -2.57548017112807  -3.87928323445945  2.60025946798942
H  -4.41908929098539  -4.73831830111588  2.17037671453323
Cl  1.52791522276269  2.82030673317531  -5.43489189047824
Cl  -1.95883886279391  -3.21577521457856  4.17143565959573
N  -0.56033958460173  -0.27825452796372  -1.31522162485593
C  -0.52900867004734  -1.27285904026716  -0.53516505679954
O  0.18638219460029  -1.55173898785324  0.35487535016385
N  -1.77891574013349  -2.17556827067104  -0.68379301883868
H  -2.71914866906559  -1.86542416078812  -1.04258624036757
H  -4.32349461247148  -4.16204277675388  -0.22003504728521
H  2.20036249133288  0.90211646131296  -0.95194522610766
Cl  3.26959905589529  3.14977987713340  -2.82715591585791

