%nproc=8
%mem=4000MB
#opt=(noeigen,calcfc,ts,recalc=5,maxcyc=200) freq B3LYP/SVP em=GD3BJ

ts-3570.gjf

0 2
O  -0.87145431608847  -4.51014166461264  -3.55420522742238
Cl  0.00781156635046  -6.93763368420342  -6.51172474919554
H  -1.43607138600876  -3.91312820742144  -4.04463861767608
C  2.33690829352056  -5.30975949226278  -2.40104456529194
C  1.42163909686309  -5.28282267603955  -3.42114137917214
C  0.52408166232042  -4.06512307395592  -3.47792884354862
C  0.73861513419249  -3.04274108058396  -2.47954605086532
C  1.95760496982078  -2.98379875947089  -1.74805058124520
C  2.59987132998812  -4.12509311968179  -1.58440593290050
H  1.05316640797683  -6.19357133322305  -3.98539055506323
H  0.77817830668522  -3.62373443317370  -4.48227477646325
Cl  3.32520201015039  -6.79871792300485  -2.04278576038946
N  -0.10032486464493  -2.04055286319611  -2.55220098473472
H  -0.28997744712240  -1.32757218842449  -1.88675902695799
H  2.28304360968140  -2.01954930977033  -1.45055607978401
Cl  4.37908901771493  -3.76389673382690  -1.32335219428777

