%nproc=8
%mem=4000MB
#opt=(noeigen,calcfc,ts,recalc=5,maxcyc=200) freq B3LYP/SVP em=GD3BJ

ts-3590.gjf

0 2
O  -1.06679640315759  -3.42636387305386  -3.86783312215147
Cl  -0.00127254817852  -6.22952361724896  -5.27479453972684
H  -1.26213371414844  -3.64170926422366  -4.72453109164296
C  1.85399117958533  -5.17496691325109  -2.55245265393402
C  0.67756716269515  -4.95197187640574  -3.07709432126357
C  0.38947991614566  -3.55174480314832  -3.51914222011294
C  0.69370248554465  -2.65130092997788  -2.29031107205172
C  2.10167431018002  -2.74037531695157  -2.26466971807852
C  2.73136522015904  -3.89908096304178  -2.35916904601206
H  -0.17410501431024  -5.55233119166900  -3.03359350054837
H  0.95923217444822  -3.25613132159181  -4.41221873752071
Cl  2.62554577419170  -6.86073889698489  -2.63410442702916
N  0.01136081014112  -2.22566908012842  -1.25841465025153
H  0.53825104899241  -1.79432771874419  -0.49360547388342
H  2.63336300295057  -1.77357266283692  -2.27659962912515
Cl  4.41244896411741  -4.42209045931495  -1.87056399982968

