%nproc=8
%mem=4000MB
#opt=(noeigen,calcfc,ts,recalc=5,maxcyc=200) freq B3LYP/SVP em=GD3BJ

ts-4598.gjf

0 1
O  -3.14082368352473  -1.55963515765637  4.70730760394424
H  -3.77717914247485  -0.85556486439421  4.92423232194885
H  -2.62185834836626  -1.48185898079703  5.55451139902585
O  2.20999540848132  0.59316902364144  3.17086617355935
Cl  1.30263740669883  1.90877336168228  3.21102047853982
H  2.04732529421128  -0.00286716028898  3.89105985315725

