%nproc=8
%mem=4000MB
#opt=(noeigen,calcfc,ts,recalc=5,maxcyc=200) freq B3LYP/SVP em=GD3BJ

ts-660.gjf

0 2
O  0.13389485375756  -4.17126900365259  2.30022451145240
H  -0.39854350839377  -4.57909652537159  1.60252033092411
O  2.66393606962529  1.87699455684709  -1.53832392813025
H  3.17591817879033  1.06123208217753  -1.59060734758530
C  -5.07258450744851  0.01273538277644  1.67363525435315
C  -4.64405078985574  -1.31953520434908  1.79074641824297
C  -3.27851563232378  -1.35585862512061  1.79099267232937
C  -2.28605242430506  -0.35798426112113  1.68413059256992
C  -2.82094413399780  0.92494239180047  1.58333338043297
C  -4.18318307648673  1.13524813565324  1.77817840188851
H  -5.31898538771959  -2.14293715381548  2.04165116377707
H  -2.95346643144600  -2.39898040547087  1.91607212963565
C  2.11322010477404  -1.22640893490120  3.01807859664331
C  2.77478702205672  -2.32531092442082  3.68781589257444
C  2.89098758551792  -0.04642697353280  2.83445673817913
C  4.11266893220328  -2.23269593385396  4.11085651599257
H  2.17084067577362  -3.15919309499459  4.03613976425938
C  4.29691227520260  -0.00382580669846  3.15244938719666
C  4.79312573954663  -1.03202167587447  3.93308430213635
H  4.63643511237840  -2.97893216104888  4.68120880763117
H  4.85229241929438  0.92373959505952  3.19405646499049
Cl  -6.65272922286463  0.39217203770876  1.96305680340012
Cl  6.29948181581040  -0.56419965485522  4.58520911037806
N  -1.08178575772413  -0.82371846770256  2.06592218182504
H  0.77029186620296  -3.69113708963749  2.01264867265668
C  0.13484233437944  -0.69226945952101  1.47031731626308
O  0.55359712772989  0.04786775346472  0.49958136637326
N  0.86713306700003  -1.37472146167378  2.36739832536589
H  2.49384219848882  0.93760912500660  2.58182255644109
H  -2.24215427918184  1.78640670263310  1.22876535366957
Cl  -4.87256980885213  2.68436489799388  1.15574417061066

