%nproc=8
%mem=4000MB
#opt=(noeigen,calcfc,ts,recalc=5,maxcyc=200) freq B3LYP/SVP em=GD3BJ

ts-670.gjf

0 2
O  0.72660856853904  -4.74970921149508  3.55120315179887
H  0.50965603810848  -5.65704324790297  3.36424625633978
O  3.37563357470083  2.61020653605306  -2.64066198091908
H  3.83662600891477  2.89657020377222  -3.43120223944760
C  -5.20471135270591  -0.08157648272340  2.02081304125984
C  -4.59895151497830  -1.43055396667279  2.19957670413378
C  -3.20749166915261  -1.55132314406646  2.04785364781176
C  -2.27841128517299  -0.50281205491042  2.08436035104102
C  -2.80244227979731  0.80063386649014  2.08231477956897
C  -4.18583058461334  0.96346074251763  2.09063692212733
H  -5.31112995143358  -2.20802446553926  2.43362966500622
H  -2.85407936435993  -2.55865660992512  2.12754652448909
C  2.38774326340902  -1.08152352568965  2.68311221610492
C  3.30980405061291  -2.06835196558455  2.68522888667852
C  2.81184324432201  0.20159913603076  3.06848087132036
C  4.56959171528006  -1.96671492208442  3.20155216494467
H  3.01943212161117  -3.11398352679913  2.56736896515630
C  3.95827911225862  0.27256817925064  3.86366100119747
C  4.88802265701418  -0.80599371643864  3.88617705618171
H  4.91009362720344  -2.96975966592599  3.49108039009325
H  3.98410541618744  1.21431139279630  4.36543244616599
Cl  -6.74211132967980  0.54797419425231  2.23686310300537
Cl  6.35364560355215  -0.68927983730248  4.72253252892408
N  -0.99806470935261  -0.75271762971657  2.03967447981886
H  0.01814665477480  -4.40013297731497  3.83294744915048
C  0.30478016626272  -0.95890659889558  1.79291385481059
O  0.79983195268557  -0.40487643723699  0.81612001584480
N  1.03500454552347  -1.46258864247889  2.81985168217730
H  2.23613348447901  1.06125230911332  3.24594747325282
H  -2.15127388391140  1.66548186876417  2.01822415742841
Cl  -4.83770403250133  2.52173261792287  1.56761637716642

