%nproc=8
%mem=4000MB
#opt=(noeigen,calcfc,ts,recalc=5,maxcyc=200) freq B3LYP/SVP em=GD3BJ

ts-4261.gjf

1 2
O  -1.87849857553257  -0.52616670657703  4.93602584627828
H  -2.54082906528519  -0.54185128349951  5.65402023360270
C  2.47207710348288  -2.47159727700477  -0.21987167853219
C  2.67832073628472  -1.09784160995570  -0.15117376532414
C  1.81360108152758  -0.34622331171571  0.60730869136566
C  0.77481423125125  -1.00741611165553  1.33103903156685
C  0.43178235768155  -2.30799729265180  1.03932135395447
C  1.26063327660218  -3.07058947552851  0.23823239812288
H  3.68517474120441  -0.78609230344359  -0.37534764146387
H  1.98375608453421  0.70826931100240  0.81422770887108
C  -1.53097920837583  2.66271752514757  3.32550511827579
C  -2.61493045249942  2.86658855212387  4.07793493662599
C  -0.65864453757155  0.54708653766069  2.38163404769572
C  -2.94522603813776  1.61817276515869  4.76175891717796
H  -3.32824011024402  3.67643869463476  4.05230198002827
C  -0.88283099449262  1.32883711225697  3.56435736156540
C  -1.87531369796160  0.80292708171241  4.58816094909321
H  -3.69736629507007  1.34313396634240  5.46392198005329
H  0.13413002408553  1.39675173404872  3.96745079667554
Cl  3.82596108768958  -3.63822968504329  -0.24474571456663
N  0.25798082716859  -0.30895089961153  2.40322517937700
C  -0.10804948498268  4.60488784920615  2.92617880128855
O  0.67175873198334  5.38249644505555  3.25617783647370
N  -0.97564198225912  3.79330875337384  2.70775642886514
H  -1.22803435900822  0.83343779485227  1.49050767829191
H  -0.25647368925722  -2.97693229311585  1.49266987636742
Cl  0.68925788827466  -4.41194758617243  -0.73995969962588

