70
 energy: -143.057092033964 gnorm: 0.074778083154 xtb: 6.6.1 (8d0f1dd)
O    -1.96267815     0.32230560    -2.87975868
H    -2.30088195     0.73011531    -3.67891289
H    -2.53822981     0.56138442    -2.15111592
O     4.01839554     0.70825059    -5.30482934
H     3.53783105     1.05164548    -4.54953038
H     4.38977065    -0.15142958    -5.09899295
O     0.82105952     1.77318681     3.99295219
H     1.53529374     2.19722689     3.51399697
H     1.14761652     1.58004012     4.87351635
O    -0.70439441    -1.04404523     3.38785561
H    -0.91551254    -1.57102198     4.16055452
H    -0.58307098    -0.14723387     3.70463389
O    -4.39415802    -4.55110611    -0.04272994
H    -3.64802930    -5.10393075     0.19605037
H    -5.12012397    -5.08103694    -0.37662344
O     0.62903806    -0.48832891    -2.25181546
H     1.21327601     0.26815608    -2.32754167
H    -0.26942015    -0.16266685    -2.32963907
O    -1.24792994    -4.69594836    -2.03931406
H    -1.16996105    -5.42481834    -2.65738108
H    -1.92196555    -4.90122294    -1.38902418
O    -0.51066618    -1.83266369     0.42205353
H    -1.44166208    -1.67586252     0.25472692
H    -0.24977633    -2.75474114     0.38970882
O     2.24996109     2.87351563    -3.20943635
H     2.16277308     1.92361065    -3.30647950
H     3.04178063     3.03547728    -2.69356033
O     3.41643462    -1.56580740    -3.57808474
H     2.58034781    -1.18075665    -3.84647456
H     3.15377807    -2.12657168    -2.84603744
O    -3.19216720    -1.69576372    -0.76011863
Cl    -4.58185582    -0.79772163    -0.35583138
H    -3.32706577    -2.26355352    -1.52823550
O     0.50721239     4.72462339     3.16790889
Cl     0.27890695     5.18588934     1.54424790
H    -0.20975698     4.14760068     3.45702272
O    -4.88690680    -2.23570882     2.36765964
Cl    -3.84273066    -1.27316856     3.30807245
H    -5.20376965    -1.64206217     1.67645220
O     3.64633498     3.20571800     1.36207408
Cl     3.64747568     2.60343311     2.95531369
H     3.52964535     4.14189343     1.56343734
C     5.43359395     0.22668957     0.90736883
C     4.77127538    -0.32364123     1.99786989
C     3.39186811    -0.32101677     2.08104187
C     2.64703052     0.25755425     1.04790909
C     3.30613135     0.63742347    -0.12092833
C     4.69194083     0.58252569    -0.21537268
H     5.39672809    -0.67465386     2.80807601
H     2.94667244    -0.73466031     2.97920406
C    -2.04559654     1.84676206     0.64150388
C    -2.26724364     2.20162872    -0.69147012
C    -3.10619441     1.97329014     1.54315789
C    -3.47858217     2.69402469    -1.16037808
H    -1.49643710     2.26746428    -1.44239553
C    -4.28798492     2.55439415     1.11333044
C    -4.46023066     2.93005922    -0.21078801
H    -3.45304081     2.97853328    -2.20428311
H    -5.11286980     2.65648826     1.80610225
Cl     7.15669624     0.38485254     1.01277966
Cl    -5.84831293     3.93462901    -0.53741784
N     1.27750382     0.48364326     1.25482774
H     0.88563852    -0.17831217     1.90598926
C     0.40556330     1.23570093     0.48350215
O     0.73230385     1.70633423    -0.57997291
N    -0.80339232     1.40071727     1.13115122
H    -0.87799313     0.90826566     2.00737846
H    -2.97067310     1.64321868     2.56790705
H     2.68821004     1.08076731    -0.88485532
Cl     5.46094372     0.96931032    -1.72015885
