70
 energy: -143.143132567369 gnorm: 0.108659266646 xtb: 6.6.1 (8d0f1dd)
O    -2.95843728    -0.12504941     2.34768217
H    -3.48730218     0.18296232     3.08576666
H    -3.13399064    -1.05493514     2.19330522
O    -3.50934333    -0.12042920    -1.77211109
H    -3.33733602     0.70980726    -2.21983833
H    -2.62121526    -0.33906222    -1.48441993
O    -0.40901222     0.16585663     2.77669275
H    -0.27918659    -0.78320595     2.73469110
H    -1.34454716     0.24062070     2.58041980
O    -3.11789953    -2.82740461     1.87764928
H    -3.32208174    -2.77882587     0.94208062
H    -3.12451676    -3.70876110     2.25514818
O     0.32513755    -0.71671763    -2.51426256
H     0.31205684     0.04956761    -1.93808981
H     0.11388707    -0.29839852    -3.35075551
O     1.00240482    -3.22363432     0.01443280
H     0.22343994    -2.76673235    -0.30773532
H     1.69594872    -2.71504928    -0.40945111
O    -1.39292478    -2.82098417    -2.42623490
H    -0.75633838    -3.47646890    -2.13565796
H    -0.84965396    -2.03268322    -2.37353753
O    -4.06002637    -2.71291162    -0.69278489
H    -4.14926136    -1.80883100    -0.99940114
H    -3.36341696    -3.15138347    -1.18453105
O    -1.30172384    -0.94295688    -0.07439204
H    -0.86463246    -0.15026977    -0.39051998
H    -1.25682851    -0.91448146     0.88295396
O    -2.38659687     0.31309994    -4.12344163
H    -2.05629233     0.15046891    -5.00875987
H    -3.08312265    -0.33054715    -3.98234392
O     0.66515496     1.78094761    -3.99643582
Cl     0.77021152     3.04834298    -5.12949994
H     0.54380678     2.28177573    -3.18094075
O    -0.22844285     4.08541474     5.07119726
Cl     1.02177456     4.14969816     3.91621298
H    -0.39334927     3.16720398     5.31672114
O    -0.03483282    -2.53193791     2.50396597
Cl     0.93648726    -3.00401185     3.82110200
H     0.35813912    -2.83264220     1.67587412
O     0.37933505     1.34121557     5.24768313
Cl     1.92379151     0.64036770     5.09075208
H    -0.11526609     1.05236136     4.47146085
C     4.92215016    -0.48086965    -0.48238830
C     4.54948507    -0.78051386     0.82224059
C     3.46866684    -0.10166033     1.35203181
C     2.73477523     0.78640521     0.55853728
C     3.12870101     1.06370491    -0.75021129
C     4.20409460     0.38074932    -1.30654011
H     5.11838117    -1.39829414     1.50454525
H     3.07458378    -0.35585745     2.32982415
C    -1.61657993     3.11150262     0.69424185
C    -1.98232409     3.49116068    -0.59957749
C    -2.54255916     3.36891161     1.70920996
C    -3.23895574     4.01748957    -0.87073127
H    -1.32229796     3.39862203    -1.44702551
C    -3.81111392     3.84299421     1.41753055
C    -4.17202476     4.22327034     0.13331250
H    -3.47376152     4.36737688    -1.86761659
H    -4.52516219     3.85172588     2.23045730
Cl     6.23849159    -1.31684966    -1.23974630
Cl    -5.77203518     4.72944407    -0.34247604
N     1.60503122     1.42655022     1.09091667
H     1.55149390     1.21829604     2.07555808
C     0.46927508     1.82613795     0.40447524
O     0.23648160     1.50671234    -0.73701887
N    -0.34069787     2.69077339     1.11482925
H    -0.18056795     2.80798558     2.10299309
H    -2.20750796     3.14416979     2.71651124
H     2.62422198     1.82231332    -1.32638761
Cl     4.52175230     0.71019225    -2.97863764
