70
 energy: -143.147795190730 gnorm: 0.102254695118 xtb: 6.6.1 (8d0f1dd)
O     1.14732508    -3.56641864    -0.65798247
H     0.55091861    -4.27750978    -0.41717816
H     1.45294215    -3.72277501    -1.55324197
O    -1.76122096     0.70729367    -1.28947395
H    -1.16584384     1.45820563    -1.25791261
H    -1.93625594     0.39887634    -0.39864312
O    -0.53703596     1.21299355     3.61205542
H    -1.28969272     0.96080777     3.07423691
H    -0.06633197     0.39892885     3.79933807
O    -2.01944370    -0.28197025     1.82109612
H    -2.77887285    -0.16259377     1.24807292
H    -1.21721855    -0.51258621     1.34930216
O     1.22693974    -2.65908971    -3.71722715
H     1.15615001    -2.20723920    -4.55993654
H     1.45649488    -1.98413924    -3.07606850
O    -1.13759236    -3.16122363    -2.50842485
H    -0.43562274    -2.76455419    -3.02729862
H    -1.82045698    -2.50757821    -2.34785388
O     0.05750815    -1.25861126    -0.23262546
H     0.44271834    -0.66528238    -0.87985911
H     0.41433334    -2.12868645    -0.41966431
O    -4.10259143    -2.67859055    -0.71052721
H    -4.24756416    -3.41494171    -1.30727511
H    -3.25838081    -2.84205789    -0.28635347
O     0.59821853    -0.03554663    -2.73131126
H     0.98361019     0.59893037    -3.33814798
H    -0.29994733     0.25062609    -2.55597993
O    -4.16942836     0.24082001     0.19363762
H    -4.59399438    -0.56747359    -0.09918225
H    -4.56178895     1.01271106    -0.21815804
O    -4.33662060     0.97579720    -2.48498395
Cl    -4.38745154     1.24568897    -4.16597677
H    -3.40702956     0.90479605    -2.23718212
O     2.24414355     2.44083514     4.24973155
Cl     2.82290917     1.02066499     4.99088724
H     1.57548439     2.84698608     4.81411037
O     0.52394550    -1.37980024     2.72019775
Cl     1.64206601    -2.65818580     2.59096654
H     0.12831444    -1.38425338     1.84040098
O    -0.59329727     2.69129055     5.90109186
Cl    -1.09093708     4.24727513     5.41898458
H    -0.73038120     2.10446562     5.14781066
C     5.28035977    -0.49119574    -0.40365596
C     4.96499949    -0.50248318     0.94954142
C     3.88691731     0.23961782     1.39306586
C     3.13659498     1.08648923     0.57043822
C     3.48262549     1.08457998    -0.78054473
C     4.53873349     0.31798874    -1.25947628
H     5.57081365    -1.16357533     1.55516617
H     3.61624078     0.24901926     2.44313318
C    -1.24396586     3.23861353     0.61577403
C    -1.34059816     3.83063262    -0.64599187
C    -2.36611542     3.39952385     1.43354264
C    -2.57491348     4.22497839    -1.14661814
H    -0.46352281     3.86163555    -1.27220565
C    -3.58581045     3.92469681     1.03908128
C    -3.66447551     4.30204367    -0.29339899
H    -2.69193408     4.59512390    -2.15688231
H    -4.44323402     3.93255516     1.69904653
Cl     6.33760297    -1.65104555    -1.13999413
Cl    -5.24654256     4.61150127    -0.95967203
N     1.98465129     1.66749635     1.12269866
H     1.91901329     1.71837807     2.12711766
C     0.91665419     2.09139252     0.34777377
O     0.86862106     2.08243707    -0.85922542
N    -0.10521584     2.59124498     1.13147190
H    -0.04176469     2.52165317     2.13495535
H    -2.27398504     2.95569456     2.41941871
H     2.79937027     1.53513667    -1.48206167
Cl     4.92022134     0.36842610    -2.94982314
