%nproc=8
%mem=4000MB
#opt=(noeigen,calcfc,ts,recalc=5,maxcyc=200) freq B3LYP/SVP em=GD3BJ

ts-3486.gjf

0 1
O  1.11796831608176  4.51827856455658  -2.20231630583451
H  2.08651840883475  4.64905611329198  -1.91534030464249
Cl  2.18906580091983  4.74369394164859  0.33539446073505
Cl  3.49749913146348  2.85693088584570  -1.44845046679786
C  0.56469087379742  3.97768182140222  -0.05557735598731
C  0.83077293635969  3.38271273641681  -1.45943713111266
C  1.90048990195030  2.25941005019973  -1.48166975234621
C  1.61689372201996  1.27599195441653  -0.28135553064877
C  0.68794208363424  1.61915347788404  0.68920678434116
C  0.19165809211749  2.92009944434426  0.94198088558554
H  -0.20715345924871  3.05481041158349  -1.78094268655543
H  1.85092579675411  1.64677504882793  -2.37051182172265
C  2.72839608781265  -0.69119027956935  -3.34802664755079
C  4.02453815584960  -0.34646192328180  -3.72390681591929
C  1.71109519630267  -0.93718875723074  -4.34072551539499
C  4.26146744026039  0.20571633528746  -4.95185126434309
H  4.63403153284687  -0.47589161819393  -2.88830302117180
C  2.10261545178041  -0.42209714975513  -5.50868181266140
C  3.22426803333161  0.18411721375683  -5.92456497245482
H  5.19286414208234  0.68590610983063  -5.04397605360054
Cl  -0.67425634308206  5.23686305070204  -0.43226972404952
Cl  2.84764160735179  1.21231196982528  -7.22776797597965
N  2.25179312323749  0.15890321419166  -0.24467972775835
C  2.58225288289594  -1.06818136640502  -0.93748575319087
O  3.07854993180451  -2.09541591229607  -0.48900108205461
N  2.24777352063956  -0.77409171729270  -2.21310994446823
H  0.67820053262396  -1.23327669004202  -4.13453226521701
H  0.26596471293122  0.71911315008581  1.15303488381079
Cl  -1.21185116340166  3.27815404229386  1.75715145761670

