70
 energy: -143.144209006431 gnorm: 0.111850885340 xtb: 6.6.1 (8d0f1dd)
O     1.24893624    -4.10432193     0.12678995
H     0.69935973    -3.34392965     0.32454553
H     1.58751554    -4.01998843    -0.76628933
O    -1.91069965     0.86945616    -1.43770821
H    -1.23399506     1.50254302    -1.19151575
H    -2.17819986     0.60919592    -0.55450590
O    -1.06330231     0.58078399     3.27754285
H    -1.90101793     0.29472022     2.90911557
H    -0.48775081    -0.18568089     3.30224987
O    -3.13930080    -0.05101813     1.70684809
H    -4.06479868     0.02111994     1.46687152
H    -2.71448947    -0.73786394     1.19001483
O     1.94800862    -2.31632507    -2.40750572
H     1.82729198    -1.51433190    -2.91894842
H     2.77540928    -2.14162312    -1.95559258
O    -0.70769665    -2.04382739    -2.02541822
H     0.11201957    -2.53109169    -1.92553428
H    -0.57542316    -1.47587869    -2.78652101
O     0.05788438    -1.09184286     0.30752562
H    -0.75874752    -1.50730161     0.59009210
H    -0.04802181    -0.84486159    -0.61286707
O    -2.71332375    -1.82282592    -0.15715898
H    -2.21807265    -2.36833412    -0.77074297
H    -3.46525636    -1.69265432    -0.73766670
O     0.97526079     0.23381320    -3.36699948
H     0.54193931     0.45999913    -2.54212918
H     1.60503318     0.93850964    -3.52863951
O    -5.45458137     1.23345051     0.18396866
H    -6.36933435     1.22464926     0.47117567
H    -5.17189742     2.11273713    -0.07348642
O    -4.23346222     0.34285752    -2.75229347
Cl    -4.59072093     1.27633815    -4.13147523
H    -3.38060360     0.50337316    -2.33104139
O     2.39447619     2.53157256     3.99190631
Cl     2.26900753     1.03153009     4.78896016
H     1.51302762     2.92270880     4.01736117
O     1.08472941    -1.27452429     2.72879680
Cl     1.39573541    -2.61236023     3.73608726
H     1.08870199    -1.56312732     1.80831940
O    -0.27137800     3.00480145     4.17940440
Cl    -1.44556109     3.68754282     5.20717827
H    -0.49948795     2.06792951     4.15068340
C     5.27343891    -0.73407535    -0.87415429
C     4.76499385    -1.20937766     0.32846526
C     3.68609158    -0.54074675     0.87490051
C     3.03782028     0.53267475     0.25489936
C     3.57936769     1.01801992    -0.93508463
C     4.63475624     0.32357313    -1.51499852
H     5.31295095    -1.93470163     0.91539205
H     3.28990379    -0.83699328     1.83992315
C    -1.13737499     2.94450176     0.68880792
C    -1.24021919     3.66232662    -0.50535621
C    -2.25788152     2.88685694     1.52247411
C    -2.41408298     4.31120741    -0.86683516
H    -0.36963422     3.72664551    -1.13805747
C    -3.47023999     3.43918195     1.14275539
C    -3.53160882     4.10238221    -0.07399511
H    -2.40091794     4.96160342    -1.73179001
H    -4.38019486     3.37558911     1.72475980
Cl     6.67591514    -1.34692278    -1.68821011
Cl    -5.02717759     4.88440810    -0.51482324
N     2.00728025     1.14078456     0.98819647
H     1.76573301     0.69869750     1.86110465
C     1.01227176     1.77091296     0.25764157
O     0.96950606     1.88186406    -0.94447957
N     0.04318038     2.29252125     1.09253084
H     0.08487546     2.24643904     2.09850598
H    -2.24500439     2.40928776     2.49673582
H     3.04761455     1.71510740    -1.56219911
Cl     4.93764755     0.74827576    -3.16824796
