70
 energy: -143.133645391280 gnorm: 0.125299413459 xtb: 6.6.1 (8d0f1dd)
O    -4.29761687    -0.18373638     5.82657846
H    -4.25775175     0.76403383     5.96615075
H    -3.46614697    -0.35193372     5.37969353
O    -0.98443308     0.85421142    -1.54233063
H    -0.35294641     1.50858963    -1.23843502
H    -1.76737018     0.80635128    -0.99091701
O    -0.71128473    -0.45007774     4.17174485
H    -0.89902786    -0.70091843     3.26556049
H    -0.71035584    -1.16443338     4.81130213
O    -1.45467431    -0.74738361     1.33856238
H    -2.27576573    -0.29452484     1.13839544
H    -0.97782206    -0.90408117     0.52161914
O     1.77391330    -1.98009676    -4.39735885
H     2.63550826    -1.92829436    -4.81486314
H     1.16729166    -1.50752031    -4.97008897
O    -0.40073119    -1.82145689    -1.04022722
H    -0.30659142    -1.10705328    -1.67276430
H     0.15641874    -2.48264296    -1.45466225
O     1.19774922    -3.36903274    -2.32638406
H     1.29813974    -2.86869753    -3.13812531
H     2.08941433    -3.60464317    -2.06416346
O    -3.31950512    -2.07456393    -1.31415679
H    -2.38387619    -1.86495414    -1.31352000
H    -3.35139292    -3.02012080    -1.46985486
O     0.07190923    -0.72842723    -5.92390933
H     0.58474864    -0.02179045    -6.32014007
H    -0.53364235    -0.32637483    -5.29861024
O    -3.35194149     0.67448375    -0.15715300
H    -3.40327324    -0.15693584    -0.63196333
H    -4.14059921     0.71042348     0.38696614
O    -1.57338309     0.72264676    -4.18720729
Cl    -3.13958015     1.32537834    -4.47858953
H    -1.40950312     0.68725572    -3.23721926
O     2.37611423     2.66637032     4.00345632
Cl     2.42013125     1.88177634     5.51462787
H     1.91004828     3.50143078     4.13011983
O     2.07742906    -2.72130714     0.71704551
Cl     1.52525528    -2.04249411     2.17837396
H     1.50934407    -2.48039565    -0.02445785
O    -0.27547784     2.07953882     4.23884446
Cl    -0.89431179     3.28026437     5.27637206
H    -0.31984870     1.15640709     4.51533517
C     4.98520580    -0.39803101    -0.58446194
C     4.77264555    -0.49964367     0.78492316
C     3.77018095     0.18287746     1.44743249
C     2.85284686     0.95669964     0.72869171
C     3.04426510     1.02001030    -0.65125263
C     4.11728718     0.42088229    -1.30092241
H     5.59982481    -0.87531277     1.37270043
H     3.75126416     0.19134668     2.53166769
C    -1.54246190     3.03023519     1.14585717
C    -1.82710971     3.62888434    -0.08396893
C    -2.61163768     2.75373106     2.00275021
C    -3.14953446     3.89629173    -0.41465837
H    -1.09139758     3.76548042    -0.86013588
C    -3.91344153     3.15791548     1.75576047
C    -4.17560888     3.63271257     0.47907791
H    -3.43836320     4.28021107    -1.38446197
H    -4.73330024     2.98796893     2.44113690
Cl     6.42910043    -1.01263628    -1.32110108
Cl    -5.78501886     4.10451459    -0.00031978
N     1.83292043     1.68427164     1.36108726
H     1.89985544     1.79660856     2.36041447
C     0.81796264     2.27957305     0.62876821
O     0.79933065     2.47755555    -0.56273929
N    -0.23624998     2.60859614     1.45860737
H    -0.27016569     2.36098519     2.43502255
H    -2.48532931     2.13031812     2.88185573
H     2.23423204     1.39702051    -1.25430713
Cl     4.19309445     0.48808320    -3.03155426
