70
 energy: -143.145045552032 gnorm: 0.114188641422 xtb: 6.6.1 (8d0f1dd)
O    -3.79682230    -0.28389671     2.92016939
H    -4.36855114    -0.24196199     3.68874316
H    -3.89101136    -1.05567469     2.35907594
O    -3.51361028    -0.94865476    -1.36075769
H    -3.50608857    -0.09295260    -1.79325743
H    -3.85338654    -0.69994874    -0.49934287
O    -1.03663496    -0.08781777     2.79613750
H    -0.89446338    -1.03598314     2.78573162
H    -1.98199228     0.07226204     2.79965493
O    -3.26254286    -2.43638692     1.41607664
H    -3.54078322    -3.16159550     0.85394339
H    -2.54327612    -2.81832375     1.92215773
O     0.29405481    -3.13184227    -1.68842737
H     0.19691986    -2.19046420    -1.84241217
H     1.09618172    -3.36693061    -2.15817624
O     1.01081505    -4.53754399     0.86062624
H     0.97982004    -4.12516366    -0.00442852
H     1.87125616    -4.24109736     1.16245393
O    -2.82031255    -3.33136710    -2.61585251
H    -1.89281176    -3.18954536    -2.41845363
H    -3.38117703    -2.56729535    -2.47106304
O    -3.15362045    -4.59212916    -0.20694550
H    -3.24426590    -5.47488732    -0.57007027
H    -2.89029009    -4.07736109    -0.97180331
O    -0.64133308    -0.72751821    -1.62135882
H    -1.33493580    -0.90716046    -0.98419124
H    -0.91841062     0.04185401    -2.12199065
O    -3.37409667     1.63544113    -2.90647056
H    -2.46721948     1.91902149    -3.03490058
H    -3.86124984     2.32833275    -3.35582708
O    -0.75144230     2.93306329    -2.64389144
Cl    -0.52672971     4.60022840    -2.91077524
H    -0.16479553     2.84737097    -1.88291260
O     2.69492022     5.07640105     1.05560663
Cl     2.02424165     4.06804761     2.25334544
H     2.35996689     4.77124644     0.20397641
O    -0.57179318    -2.76648446     2.32471250
Cl     0.64247972    -2.65833842     3.51425425
H    -0.30138775    -3.51507165     1.77965814
O     0.82051340     1.77369001     4.17593375
Cl     1.89733007     0.46058793     4.30780342
H     0.09337734     1.43582378     3.63954990
C     5.16162721    -0.27744020    -0.12047928
C     4.39290572    -1.05945982     0.73288761
C     3.11506732    -0.58296429     0.95597936
C     2.60685160     0.64268447     0.51281716
C     3.47680548     1.43777771    -0.23277150
C     4.74388938     0.97322344    -0.56607188
H     4.80052200    -2.01924083     1.02185869
H     2.56695351    -1.18404157     1.67310756
C    -1.94531731     2.34650896     0.24186144
C    -1.95550685     3.69633490    -0.11833791
C    -3.15068644     1.67415699     0.46296150
C    -3.17081800     4.33919323    -0.31688640
H    -1.03346659     4.24459257    -0.22613999
C    -4.35116362     2.30804636     0.18709718
C    -4.36099160     3.66869097    -0.08240637
H    -3.15378732     5.35137808    -0.69967484
H    -5.31336674     1.81661878     0.24587775
Cl     6.69131924    -0.86712382    -0.68397194
Cl    -5.87801090     4.42967881    -0.48510957
N     1.34643799     1.03171501     0.99192855
H     0.93325649     0.24670338     1.47025116
C     0.50972146     1.90483101     0.31488493
O     0.85086129     2.86254251    -0.33753106
N    -0.81494909     1.52290773     0.40226883
H    -0.98468200     0.69859036     0.95683140
H    -3.20220506     0.63117138     0.75783589
H     3.18673405     2.40767695    -0.60306727
Cl     5.82259409     2.00171771    -1.45147850
