70
 energy: -143.138578737890 gnorm: 0.110687421973 xtb: 6.6.1 (8d0f1dd)
O    -1.06492207    -2.32776068     1.74785836
H    -1.40333114    -1.59927311     2.27142611
H    -1.25896859    -2.14671162     0.82649748
O    -1.10433587     0.48236283    -4.15253224
H    -0.28099341     0.00479905    -4.26819917
H    -0.93664661     1.41685251    -4.01856422
O    -1.45731783    -0.06953424     3.30393616
H    -1.25289110     0.86447107     3.37592513
H    -0.89715740    -0.58358663     3.88815255
O     1.02806155     0.64412805     5.37566741
H     1.80816775     1.11154826     5.67946279
H     1.40440880    -0.18561348     5.07695316
O     0.35601341    -1.81930478    -2.30671825
H     0.37785739    -2.77730119    -2.27347811
H     0.18036102    -1.54440642    -3.20833638
O     0.24153327    -4.64036491    -3.10519790
H     0.10638196    -4.02119101    -3.82470869
H     0.50229192    -5.48951507    -3.46615274
O    -1.73547523    -1.07400558    -0.63419808
H    -2.14069233    -0.31813315    -1.06290942
H    -0.97670865    -1.35701920    -1.14753535
O    -0.59346157    -2.06329117    -5.07640238
H    -0.74351257    -1.97424195    -6.01921366
H    -1.39362439    -1.90292097    -4.57305621
O    -0.61120593     3.01897886    -2.85635860
H    -0.89186217     3.78652057    -2.35491030
H     0.02632836     2.50293932    -2.35977926
O    -2.80421239    -1.93466679    -3.26138464
H    -2.77619460    -1.71396011    -2.32873149
H    -3.27086951    -2.76866212    -3.33898115
O    -2.74143951     1.01118629    -2.17453418
Cl    -4.09541394     1.86503467    -2.75664965
H    -2.17587564     0.78826645    -2.92355398
O     2.01879774     2.74514093     3.12698260
Cl     2.73547481     3.84479628     4.21247639
H     1.18937353     3.12826715     2.81737499
O     0.98155300    -1.98140507     3.19208408
Cl     0.72638420    -2.67213019     4.72797194
H     0.41554571    -2.34410634     2.50022452
O    -0.72101293     2.97425982     3.37601914
Cl    -1.48969810     4.36293641     3.99396839
H    -0.20187938     2.62578220     4.11062909
C     4.89037821    -1.36460482    -0.60223295
C     4.28343160    -1.79665669     0.57065641
C     2.98209201    -1.42059066     0.84411301
C     2.24210812    -0.54707687     0.04019242
C     2.89209123    -0.06080866    -1.09380962
C     4.16578706    -0.50790033    -1.42578762
H     4.88265274    -2.37713133     1.25972689
H     2.39672944    -1.74791828     1.69628832
C    -1.52724688     2.42894376     0.82499095
C    -1.21496868     3.64351949     0.20922676
C    -2.76200340     2.18164188     1.43168300
C    -2.18511152     4.63774892     0.20873478
H    -0.28978755     3.84950175    -0.30456034
C    -3.75110800     3.14681247     1.33587011
C    -3.40776151     4.38364204     0.81008660
H    -2.05760166     5.52955955    -0.39105703
H    -4.78129268     2.98137538     1.62247285
Cl     6.60307294    -1.57748337    -0.76522973
Cl    -4.61957334     5.63013052     0.66726345
N     0.96330538    -0.14173102     0.45237348
H     0.48232884    -0.63822366     1.18579787
C     0.48664038     1.12777103     0.16607085
O     1.01616006     1.91956495    -0.57683262
N    -0.68352821     1.30332687     0.87890954
H    -0.93361460     0.64175503     1.59698162
H    -2.90892187     1.18298827     1.82984122
H     2.39545871     0.61551346    -1.77049970
Cl     4.94166792     0.15280538    -2.82822338
