5
 energy: -13.583986607047 gnorm: 0.000369696629 xtb: 6.6.1 (8d0f1dd)
O           -0.13850347260398        5.54447306506738        1.07685464266952
Cl          -1.44747419948243        6.32268015759695        0.71165733672009
H            0.35085750323398        5.17708673361557        2.69527970762491
O            0.68473283325724        4.91375615781959        3.57653176605624
H            1.44802002048706        4.35043828531583        3.42728860433089
