5
 energy: -13.583992418479 gnorm: 0.000516173417 xtb: 6.6.1 (8d0f1dd)
O           -0.17440051625888        4.65946049760421        1.76588091724671
Cl          -0.88440110342044        5.50239932858906        0.65245605612439
H            2.10064610790393        4.78493460395817        3.84584380188248
O            1.92536226656868        5.51079503475266        3.24221849217779
H            1.16876743420237        5.23820274631462        2.68482601187080
