70
 energy: -143.127297545699 gnorm: 0.105857757483 xtb: 6.6.1 (8d0f1dd)
O     0.05955089    -3.86336632     0.98353244
H    -0.89859790    -3.88855862     0.95795388
H     0.39329527    -3.59114718     1.84018296
O    -1.32922580     2.48835802    -2.46439789
H    -1.05940462     2.62390876    -3.37443159
H    -1.20237091     1.54300341    -2.36667089
O     0.27165455     0.28483550     5.56302755
H    -0.30318403     0.12558681     6.31371994
H     0.15355571     1.21253619     5.35145611
O     1.08357769     4.41869886     4.18214699
H     1.22353894     4.24940357     3.24882554
H     1.55585167     5.23624071     4.34924302
O    -2.81821058    -1.15474659    -1.31271209
H    -2.07935918    -0.88201939    -1.85957376
H    -2.80567425    -0.38284198    -0.74407845
O    -0.97189901    -0.18472650    -3.06008904
H    -0.03993373    -0.38297301    -2.95295818
H    -1.24076177    -0.59996707    -3.88144617
O    -2.50416212    -3.37748015    -0.16362872
H    -2.31003603    -2.58666087    -0.66984740
H    -3.45623676    -3.39883787    -0.27514693
O    -0.65712117    -2.88286108    -3.77032225
H    -0.34772434    -3.48324298    -4.45087596
H    -0.84078288    -3.38333347    -2.97337038
O     1.90425376     2.20281258    -2.29145777
H     1.59124840     1.89099224    -1.44049696
H     1.21199779     2.82527350    -2.52093956
O     1.68714627    -0.53894494    -3.18933001
H     2.30418629    -1.06824530    -2.68095901
H     1.92815664     0.33806380    -2.88583708
O    -3.96395490     3.44060616    -3.23931117
Cl    -4.70231291     1.99514607    -3.75567811
H    -3.24108969     3.19007384    -2.65170088
O     1.60160490     4.83492958     1.37907003
Cl     2.69146586     5.11745935     0.10096806
H     1.14571009     4.00479588     1.19569870
O     0.12870503    -1.60117214     3.58245527
Cl     1.75363392    -1.36055338     3.13204152
H     0.08368927    -1.08025870     4.39313949
O    -0.93123811     2.79539428     5.10531900
Cl    -1.74481726     3.60481585     3.84671401
H    -0.08050500     3.24444713     5.03325805
C     4.69636351    -2.25562972    -0.58750562
C     3.59632723    -2.94683088    -1.08033807
C     2.29132713    -2.56717078    -0.83029416
C     2.01977705    -1.43738764    -0.05135797
C     3.12301428    -0.70312708     0.38295143
C     4.42509237    -1.03785533     0.02946684
H     3.74180980    -3.84820607    -1.66102090
H     1.50579835    -3.12652687    -1.32633936
C    -1.84585762     1.34857819     0.94658837
C    -1.41768537     2.62900177     0.58733719
C    -3.15124012     1.16961100     1.41328355
C    -2.24964615     3.72602746     0.77185116
H    -0.41238478     2.82049035     0.24811920
C    -4.01196820     2.25337778     1.47377345
C    -3.56123264     3.53078649     1.17519862
H    -1.83896788     4.69837920     0.53266370
H    -5.04171303     2.03864285     1.72735883
Cl     6.26840709    -2.79899208    -1.07601871
Cl    -4.68610913     4.84867431     1.37630675
N     0.66457513    -1.22496194     0.24501704
H     0.21203735    -2.03103774     0.64652185
C     0.15906058     0.06500226     0.28053633
O     0.82546615     0.99134816    -0.11572267
N    -1.09649784     0.16087904     0.84854522
H    -1.48480411    -0.64531414     1.31235427
H    -3.42411289     0.19423619     1.80265286
H     2.98814174     0.20650335     0.94539868
Cl     5.71363752    -0.06230593     0.65660652
