%nproc=8
%mem=4000MB
#opt=(noeigen,calcfc,ts,recalc=5,maxcyc=200) freq B3LYP/SVP em=GD3BJ

ts-1431.gjf

0 1
O  -0.10077331852492  0.99167952820785  -2.52186736069594
H  0.02817581786819  1.03277051636430  -1.65597853862744
C  -2.77637466085418  -2.97591400664871  -0.56953112460809
C  -2.41300141613329  -1.65055259905152  -0.36781680508648
C  -1.18305264693278  -1.26403996882105  0.04742521146380
C  -0.12221406646923  -2.15546142039179  0.05438723515022
C  -0.55982396208691  -3.61117398984722  0.35792617151965
C  -1.83160097585761  -4.03222396869666  -0.08396972014986
H  -3.21318745399907  -0.97250327500401  -0.39668530910270
H  -0.94053880195750  -0.17999751360824  -0.12031800495195
Cl  -4.29268896787870  -3.27749642134672  -1.51247487326461
N  1.05799263763866  -1.70707630332987  -0.06436936047802
H  1.27734720009457  -0.71663661172115  0.07586508442612
H  0.21681715975586  -4.13601597027715  0.90398135946984
Cl  -2.58009668056195  -5.39854295965302  0.50234212292409

