%nproc=8
%mem=4000MB
#opt=(noeigen,calcfc,ts,recalc=5,maxcyc=200) freq B3LYP/SVP em=GD3BJ

ts-1441.gjf

0 1
O  -1.01977711808763  1.27040766371583  -0.82790101047076
H  -2.30425727438606  1.57624853303178  -0.93115098253912
C  -2.85498132349196  -3.20397726757220  -0.18254042983960
C  -2.61737450344381  -1.77625123266557  -0.35681594743150
C  -1.45291144826771  -1.10678628721251  -0.35801584599930
C  -0.41377927136737  -2.05636483354618  -0.43156246217969
C  -0.55348949347428  -3.32578906410585  0.22585131319900
C  -1.73863561136627  -3.98470271034099  0.13615444664357
H  -3.55292503962068  -1.28570975988183  -0.75465454076398
H  -1.25783700387613  0.11893298459306  -0.78652583478877
Cl  -4.07680333468073  -3.89345807672868  -1.08728658148024
N  0.79718810352302  -1.91935702135227  -0.85375184464028
H  1.08397036589493  -0.91456775719353  -0.89271209487689
H  0.33133507944720  -3.88741057968446  0.49683913035500
Cl  -1.79750013170971  -5.79675730342368  0.31783781810718

