%nproc=8
%mem=4000MB
#opt=(noeigen,calcfc,ts,recalc=5,maxcyc=200) freq B3LYP/SVP em=GD3BJ

ts-1471.gjf

0 1
O  -2.64574954707584  2.93085134910836  1.71096722950476
H  -2.37031763304909  2.18833536707112  0.82473526499049
C  -2.52386799344352  -4.11461466042430  -0.19171177743483
C  -3.13006810390054  -3.05553640943200  -0.81325506269533
C  -2.24361985250272  -2.12131108132588  -1.25005545977509
C  -0.83140341018120  -2.03078670151235  -0.94661965391643
C  -0.32372897642752  -3.38767009607489  -1.04217028068731
C  -1.13975764992493  -4.36725225478480  -0.47935406397607
H  -4.21692286962424  -2.91337370727105  -0.86008135433555
H  -1.89807915269006  2.48614922419168  2.17814689028328
Cl  -3.29330681936541  -5.42720987497501  0.80831674409283
N  -0.20852565481815  -0.92234682243592  -0.63255463290390
H  -0.52438353855985  0.01724125984712  -0.79201012140415
H  0.67063672401143  -3.59027308689942  -1.43983097277811
Cl  -0.42047176634579  -5.89655269173341  -0.11943102344324

