%nproc=8
%mem=4000MB
#opt=(noeigen,calcfc,ts,recalc=5,maxcyc=200) freq B3LYP/SVP em=GD3BJ

ts-407.gjf

0 2
C  -5.52408391511605  0.25773673769363  -1.50418851155615
C  -4.25722148026334  0.59439922560669  -1.95598711510157
C  -3.32907883538172  -0.41596324183640  -2.18330803006099
C  -3.39668384840548  -1.56221348225456  -1.42804203831013
C  -4.61561015620319  -1.82272378269497  -0.80545816384197
C  -5.69127255511722  -1.03533840189514  -0.95135171841501
H  -3.92528701649774  1.64700355258241  -2.00304279254875
H  -2.40229781659554  -0.08667457304253  -2.60736096613033
C  0.53834102838956  -3.95806338960309  -2.31995802796982
C  1.39560867521933  -5.10405083920128  -1.89599068424357
C  0.58675416194956  -3.62652994335065  -3.67115841774381
C  2.57493801477332  -5.42066592209796  -2.54814829206219
H  0.97118735149057  -5.72271658712235  -1.09876261720720
C  1.84986183403319  -3.96353313034442  -4.36092607659029
C  2.87350392685327  -4.84743341420610  -3.84268237328547
H  2.94695264801219  -6.41952594028723  -2.34227306532107
H  1.83052955863368  -3.70346616539390  -5.40984756228659
Cl  -6.62606469094484  1.53473812720637  -1.44492730382384
Cl  4.13804760467066  -5.30326619117766  -4.93830627918681
N  -2.32167279586430  -2.29270196168989  -1.05384971705427
H  -2.58769448974739  -3.22529112509434  -0.76115880234411
C  -1.11637817751246  -2.18658463643932  -1.68384116842460
O  -0.65391742702745  -1.07300068724753  -1.79331235009015
N  -0.37251025612433  -3.30867108411009  -1.63441551981835
H  -0.27897351930679  -3.12738306538249  -4.15764997937699
H  -4.81517186978969  -2.70835356636510  -0.25133600335461
Cl  -6.94515352111967  -1.72334060999090  0.05769258569905

