%nproc=8
%mem=4000MB
#opt=(noeigen,calcfc,ts,recalc=5,maxcyc=200) freq B3LYP/SVP em=GD3BJ

ts-427.gjf

0 2
C  -5.12644915452788  0.24702561931594  -0.62685826698630
C  -3.75775579462060  0.52543925666381  -0.68706703675366
C  -2.90455248214800  -0.56947036310381  -0.99803285783739
C  -3.50588830465337  -1.83023191316086  -1.12007537425465
C  -4.93318184905408  -2.06097945740099  -1.09572713791147
C  -5.75191058093806  -1.07201942924260  -0.68687156519339
H  -3.41120889730196  1.54621299612668  -0.61146877356152
H  -1.81316047323217  -0.46004758436756  -1.20105906745523
C  0.26727147492727  -4.51697785598879  -2.13079678270119
C  0.52377266116089  -5.94409058809650  -2.31558143300274
C  1.43513679513169  -3.68845001766599  -1.67499719840001
C  1.51191263481141  -6.10332834519061  -3.16226157204917
H  -0.26710096103429  -6.65891578008404  -2.12135344654524
C  2.57612567295596  -3.81798328943495  -2.38959824454320
C  2.52895015084153  -4.98066144229014  -3.27180871387102
H  1.70723109405788  -7.05135362966943  -3.59057077638165
H  3.55811788567721  -3.40696292955232  -2.17299315791553
Cl  -6.29911027400080  1.51956698300684  -0.61355270327065
Cl  3.69079491811182  -5.80685029708603  -4.14445910281847
N  -2.74318876384190  -3.06267325964499  -1.31817374698636
H  -3.38428849498982  -3.80984690140350  -1.55694717717208
C  -1.46677353108918  -3.07111219806887  -1.88137073675296
O  -0.90260465162427  -2.06467606157970  -1.40469698383985
N  -0.92632242200026  -4.01562682843280  -2.54501804644264
H  1.18736966716996  -2.96448862960985  -0.94668076698236
H  -5.24713196777148  -3.12423088487204  -1.08798051488627
Cl  -7.35160353027965  -0.98682476028506  -0.33248219983991

