%nproc=8
%mem=4000MB
#opt=(noeigen,calcfc,ts,recalc=5,maxcyc=200) freq B3LYP/SVP em=GD3BJ

ts-447.gjf

0 2
C  -5.05364943746542  0.12235013743048  0.33014600026585
C  -3.65514754700742  -0.03817845263099  0.50146076451453
C  -2.81410448489915  -0.77527015570261  -0.32542965870820
C  -3.44154292150314  -1.58216654913325  -1.30384077599301
C  -4.87090626651865  -1.56843025445531  -1.41889895549544
C  -5.63501941137598  -0.79447091790255  -0.59527020018698
H  -3.16555541880383  0.59288436463682  1.19627562927146
H  -1.78488754848800  -0.78931019704547  -0.12930558297720
C  -0.08006488037882  -4.37329219271766  -2.99748764514850
C  0.10372758895340  -5.19882069478460  -4.13346557107575
C  0.77168570129021  -4.83583444311689  -1.78193581124339
C  0.99401447846110  -6.27733667016875  -4.08945853841900
H  -0.76166838129317  -5.33234674936207  -4.74658035505831
C  1.35300200061011  -6.09580927807579  -1.75063037969378
C  1.58569472278514  -6.80537143011819  -2.91959970254646
H  1.13117984384580  -6.90040161362103  -5.00382016069723
H  1.73300756627214  -6.42376089052126  -0.80384825883030
Cl  -5.53716250658796  1.91252845932525  0.44949594697687
Cl  4.20110108713520  -5.68539940575152  -2.96564685830035
N  -2.79166960442707  -2.56256115459789  -2.02043589258993
H  -3.34824526162125  -3.08763995907633  -2.71167606014704
C  -1.43681298375591  -2.63042155353827  -2.41349850811746
O  -0.64152559026182  -1.84880112071431  -1.82743977386803
N  -1.06473205057438  -3.53901571189712  -3.21077914796718
H  0.47030673213627  -4.42522295058483  -0.85268383829352
H  -5.30242661366252  -1.88991883712167  -2.36907593379801
Cl  -7.36819056769885  -1.01637461403257  -1.01410241367707

