70
 energy: -143.132946185869 gnorm: 0.086977651580 xtb: 6.6.1 (8d0f1dd)
O    -2.41876767    -1.85629303     2.30806805
H    -3.10164328    -1.93775546     1.63994920
H    -2.52502466    -2.46648462     3.03999316
O    -0.51122486     2.70168158    -2.59533142
H    -0.51744673     2.18337078    -1.78870015
H    -0.70805441     3.61550046    -2.38195088
O    -0.39432719    -0.95267877     5.69943215
H    -0.89933522    -0.25172714     5.28353273
H    -0.29249437    -0.65934658     6.60658411
O     0.95854220     1.94448870     2.91171073
H     1.72810917     2.51469031     2.86726094
H     1.28287100     1.04737625     3.00834692
O    -3.79257123    -1.87381960    -2.13443172
H    -2.89747871    -2.12582970    -2.36818263
H    -4.08363554    -1.24768464    -2.79969460
O    -0.86438018    -1.77890242    -2.40232826
H    -0.03696904    -1.58446924    -2.84609007
H    -0.73962735    -2.39852831    -1.68132899
O    -4.48333437    -2.32368270     0.55952240
H    -4.15989040    -2.77106091    -0.22442541
H    -4.98974442    -1.59358860     0.19917526
O     2.67751229    -2.69660872    -2.66802164
H     2.22188912    -1.95895936    -3.07743478
H     3.58247002    -2.39398706    -2.57416988
O     2.27525533     2.84750504    -2.66508183
H     2.74595946     2.34353645    -1.99890477
H     1.34850463     2.60192690    -2.65234157
O     1.94808722    -0.25686083    -3.55033271
H     2.46117260     0.33325945    -4.10516582
H     1.27418934     0.23834261    -3.08131939
O    -3.03003827     1.63361097    -2.09116201
Cl    -3.85607235     3.03907248    -2.58462716
H    -2.29823854     1.61943024    -2.71953646
O     4.17664580     4.27797731    -0.90001353
Cl     3.37679281     3.39497160     0.31723778
H     3.55423211     4.42322275    -1.62257291
O     1.15276717    -1.47005374     3.17236289
Cl     2.83131638    -1.30507438     3.40988802
H     0.69729635    -1.23059520     3.98832371
O    -1.38493328     1.62192745     4.43840233
Cl    -2.97978866     2.21135395     4.33753827
H    -0.75585613     2.27114710     4.10170685
C     4.55321020    -1.66491379    -0.44029826
C     3.79063066    -2.56964749     0.28816044
C     2.47953933    -2.29316534     0.62622283
C     1.90322466    -1.05577899     0.32023686
C     2.75147296    -0.08524438    -0.21214742
C     4.05783454    -0.37290349    -0.59039782
H     4.14539168    -3.55323860     0.56659916
H     1.93826396    -3.07274331     1.15088912
C    -2.16063909     1.70729705     0.91540404
C    -1.70479228     3.02617865     0.84734140
C    -3.54216439     1.49501013     0.92879460
C    -2.57282450     4.11039368     0.87317575
H    -0.62804954     3.08078616     0.84431879
C    -4.42239254     2.56099474     1.01788754
C    -3.93293082     3.85750759     0.95818646
H    -2.24208499     5.12433475     0.68913745
H    -5.49906060     2.45409545     1.03011504
Cl     6.15341111    -2.13515575    -0.91299084
Cl    -4.95742114     5.26349085     1.08566421
N     0.55047537    -0.79578959     0.58858363
H     0.06476733    -1.36817714     1.26105294
C    -0.09212483     0.40895928     0.35097170
O     0.28053197     1.18739745    -0.49424738
N    -1.29989262     0.59617358     0.99478943
H    -1.72520502    -0.24414622     1.35370458
H    -3.93261788     0.48750065     1.02826712
H     2.30056139     0.88700783    -0.32777374
Cl     4.88023458     0.95381659    -1.34460036
