%nproc=8
%mem=4000MB
#opt=(noeigen,calcfc,ts,recalc=5,maxcyc=200) freq B3LYP/SVP em=GD3BJ

ts-4502.gjf

0 1
O  -0.48899435607069  3.53594168936594  -2.19724855584484
H  -0.21195086427216  2.70363764391721  -2.59390944276911
Cl  1.67556780761954  6.30205794177965  -1.21891649303003
Cl  -1.14030850289705  1.89000243108864  -0.23239435118771
C  1.64110806929119  4.57743086970261  -1.15272750043461
C  0.21202957871558  3.95492719586583  -0.97960266383877
C  0.40899728815056  2.76582046445202  0.06427703575298
C  1.77669979036060  2.03908711430634  -0.24713460825408
C  2.89215399757001  2.47850364000652  -1.06129050445952
C  2.84238280382637  3.85677429658305  -1.17183567552995
H  -0.52984769076507  4.65632717170182  -0.51127923041910
H  0.44150664322954  3.10824400217012  1.08307158765984
C  1.22629963338241  -2.05064477222002  1.39460378413342
C  1.54576259921597  -3.51402365742803  1.16259289307559
C  -0.27084197890060  -1.71650021642322  1.58591651027228
C  0.56369262207184  -4.37539411137657  0.93478763723134
H  2.60772802938724  -3.60285615047885  1.06149239329715
C  -1.05041244889817  -2.79735488590279  1.49152261856245
C  -0.82031257030419  -4.12486505243150  1.37456816446270
H  0.76706995839707  -5.37527495962099  0.47991895095015
Cl  -4.03291806939324  -1.74439916944688  1.84606538699726
Cl  -1.91190992630625  -5.34389561550833  1.70551824437412
N  1.74088685025023  0.87465032173955  0.31865016507117
C  2.18578605347589  0.25941160939696  1.44996138298303
O  2.44220759033038  0.86965177835351  2.53753733926380
N  2.18145713428416  -1.08433025818260  1.37033126503957
H  -0.64615351527613  -0.68201130606540  1.73609022295264
H  3.64842105046318  1.73153554518887  -1.27055500779190
Cl  4.49054032728989  4.46990845175841  -1.60315947137107

