%nproc=8
%mem=4000MB
#opt=(noeigen,calcfc,ts,recalc=5,maxcyc=200) freq B3LYP/SVP em=GD3BJ

ts-5882.gjf

0 2
Cl  7.46281635570985  3.15981831877494  0.48597366090625
O  1.96059368315649  -1.11539518461284  3.86490040712286
H  1.43488768013495  -1.65733040717357  3.32001721581022
C  4.00222715767365  0.01719470772292  1.09464973982180
C  3.02701754912715  -0.51004476085399  1.90244075764210
C  2.98560477464186  -0.58333514798405  3.27802583980200
C  6.19675884209801  2.21408538508387  1.18490768699020
C  4.88767988652383  2.42880747620331  0.71775947418798
C  4.09836283235831  1.26129850613079  0.66767691947983
H  2.38917571472436  -1.15243645100068  1.31256756278129
H  3.70740453229585  -0.20189612860972  3.97044131042919
Cl  4.22623180259099  -1.40253710176949  -0.38862151203037
N  6.49691461027187  1.22129429396264  1.80822500091872
H  7.18659918724656  0.59041660597534  2.14440799225282
H  4.81387292894891  3.36617936196627  0.16049154486120
Cl  2.40916324371956  1.80980822443594  -0.17219184582153

