%nproc=8
%mem=4000MB
#opt=(noeigen,calcfc,ts,recalc=5,maxcyc=200) freq B3LYP/SVP em=GD3BJ

ts-5892.gjf

0 2
Cl  7.23931402059892  3.36972315029983  0.86801762778538
O  1.48960262755563  -0.86012417614867  4.07731429701906
H  0.67964836409027  -0.93268420561453  3.68818628373502
C  3.26462519562447  -0.20378426317020  0.97829379829913
C  2.38167619225240  -0.84325226477971  1.90793932444017
C  2.31595605941126  -0.30859114702803  3.16244245358561
C  6.49554880778644  1.57213176884541  0.94687093347582
C  5.13136054833184  1.68330268900428  0.36108312583355
C  3.96700883764164  1.06728430228595  0.47603205960426
H  2.23959390572496  -1.93415901318661  1.65678448636792
H  2.75405297973362  0.74655843177087  3.33757193333276
Cl  3.62243963661557  -1.40398634819782  -0.28775413693222
N  6.76287133403844  0.50442347850914  1.58864083000377
H  7.66688604092609  0.68710214410512  2.02763655820992
H  5.18586969167064  2.52645791347601  -0.28503759006290
Cl  2.44529949017553  1.73237751979611  -0.38362335561136

