%nproc=8
%mem=4000MB
#opt=(noeigen,calcfc,ts,recalc=5,maxcyc=200) freq B3LYP/SVP em=GD3BJ

ts-5772.gjf

0 1
Cl  -1.41555181169348  0.68228313609381  -0.14334746514332
C  1.03894121646831  2.67153538052509  -1.15279541061634
C  1.76660742432110  3.80368916118021  -0.70369989130429
C  1.04534700708986  2.62426319767760  -2.61701868275268
C  2.22866586718414  4.86675812761709  -1.40543948433390
H  1.95875682067832  3.81450554384553  0.37207897544925
C  1.26031951378913  3.75456631426334  -3.37486551553538
C  1.88163932821130  4.93398379429494  -2.76925665429299
H  2.82142100575944  5.57718879316829  -0.85061213478318
H  1.12316708458267  3.76684483378642  -4.43291024716061
Cl  2.02773054227062  6.31782707336045  -3.68814396547362
N  0.28307588731298  2.09730368759489  -0.24556876861519
H  0.30107569191804  2.30060463628255  0.74035033812925
H  0.59277735614509  1.81250436209246  -3.19208566255327

