%nproc=8
%mem=4000MB
#opt=(noeigen,calcfc,ts,recalc=5,maxcyc=200) freq B3LYP/SVP em=GD3BJ

ts-5792.gjf

0 1
Cl  -1.48052357148934  0.75305522729587  -0.65319179249867
C  1.89795294748534  2.41462343102157  -1.07036885794643
C  2.56950664821830  3.45230333968055  -0.39302172076471
C  1.30293806506603  2.80735450668187  -2.31388573076455
C  2.64440769521046  4.75873145223489  -0.95026967877556
H  2.92756744564640  3.21478644177291  0.60788908717409
C  1.27461730381999  4.09258345034758  -2.76713179251576
C  2.04221216249022  5.11558743060728  -2.13698686150220
H  3.26745562460956  5.49889356904271  -0.46014440791892
H  0.75106553874048  4.40711927135078  -3.67385558383855
Cl  2.54448420195621  6.29135085219222  -3.34575963757390
N  1.71256150886004  1.12420230468952  -0.87596143760416
H  2.06126092705847  0.41417664842126  -0.21703887438839
H  0.78150697939369  2.07170597879221  -2.89526256112480

