%nproc=8
%mem=4000MB
#opt=(noeigen,calcfc,ts,recalc=5,maxcyc=200) freq B3LYP/SVP em=GD3BJ

ts-3431.gjf

0 2
O  1.87436268182236  -3.49763341202185  -2.98908752578093
Cl  1.75587350205670  -1.20607659091396  -3.61655436471977
H  0.92596700473668  -3.18248599447507  -3.03342266533321
C  2.50940085644510  -5.13876766949903  -0.23075833611760
C  1.45211866802729  -4.39419190133492  -0.60397025095598
C  0.90274793882706  -4.69869135212459  -1.94183519452770
C  1.28255583512025  -5.83909796190980  -2.66280626834117
C  2.70114221943718  -6.22232082778508  -2.42504141095976
C  3.32038670565670  -5.86425512517547  -1.27339856889267
H  1.06985061476243  -3.58529562281847  0.06686444811840
H  -0.13846021716215  -4.38330999223789  -2.12802385533348
Cl  2.86177011447532  -5.03083295236745  1.59162401243365
N  0.49155899527230  -6.50593229614877  -3.45149233596875
H  1.00218708101854  -7.11121403213045  -4.07198780939541
H  3.09668801362589  -6.56474531847461  -3.36874494385855
Cl  4.94808524749187  -5.52833390360404  -1.87579673860932

