70
 energy: -143.151047523378 gnorm: 0.101299274515 xtb: 6.6.1 (8d0f1dd)
O     0.45369314    -1.11948944     2.39121296
H     0.94201451    -1.94464041     2.39368780
H     0.03854110    -1.03239961     1.53132760
O    -2.33253864     0.89072475    -0.96484852
H    -2.09413271     1.43624747    -0.21324598
H    -3.27723385     0.80964537    -0.82231723
O    -3.50144224    -2.76280222    -0.73619686
H    -2.91080255    -3.50590079    -0.60096419
H    -2.92697425    -2.09335781    -1.11192160
O    -0.43628995    -0.91419501    -0.14541424
H    -0.13488498    -0.47504209    -0.94268380
H    -0.00381309    -1.76949305    -0.11771057
O    -2.47334849    -1.38664820     1.75058545
H    -2.46950978    -2.30485371     1.47450013
H    -1.81766006    -0.94991530     1.20407363
O     2.36632723    -1.96568576    -1.91557157
H     1.65009096    -1.42911931    -2.25972276
H     3.14268919    -1.49814529    -2.22863300
O    -0.43065856    -3.71988129    -0.24555426
H     0.29548971    -4.05380088     0.28410963
H    -0.40065110    -4.05006582    -1.14522993
O    -1.02560836     0.35490734     3.79240123
H    -1.83060091     0.34438574     3.27161868
H    -0.40998838    -0.26082188     3.39087157
O     2.49286906     0.59648990    -3.06921579
H     2.45188851     1.28009299    -2.39813755
H     2.84804586     1.02381880    -3.85061024
O    -0.07341320    -0.20906367    -2.75815632
H     0.72037199     0.31223822    -2.89039760
H    -0.80114575     0.33180109    -2.44637282
O    -4.99518331     0.11749206     0.70724502
Cl    -6.61375211     0.64502644     0.76296534
H    -5.00186491    -0.75286803     1.12319583
O     0.03978750     2.82607396     3.07089545
Cl    -0.50791506     4.07717678     4.08870107
H    -0.17027928     1.98932224     3.50252679
O     2.25495452    -2.96536964     0.58996378
Cl     3.70559114    -3.81073460     0.87662612
H     2.42911659    -2.63094456    -0.29796278
O    -2.78549721     1.39605145     1.92223772
Cl    -3.78032131     1.98171214     3.17463039
H    -3.18143383     0.54395675     1.70370426
C     5.75181637    -0.34066190     0.57761399
C     4.80704948    -0.68276144     1.53735661
C     3.53306689    -0.14975297     1.48676789
C     3.26105292     0.91889516     0.62601799
C     4.23613194     1.34167058    -0.27696445
C     5.41173386     0.60741843    -0.38296124
H     5.05436552    -1.53314344     2.15906402
H     2.70766726    -0.47471776     2.11055375
C    -0.91907731     3.47833006    -0.31477646
C    -1.09486954     3.58722539    -1.69648421
C    -1.90743014     3.98367504     0.53471883
C    -2.22102650     4.26688219    -2.14314588
H    -0.33739156     3.24755438    -2.38439170
C    -3.15226648     4.36717879     0.06315794
C    -3.27372197     4.58838480    -1.30080648
H    -2.23151548     4.44476518    -3.21065832
H    -3.96204290     4.59661516     0.74316687
Cl     7.21631946    -1.24937140     0.39137168
Cl    -4.80850629     5.07563987    -1.97135810
N     1.99666219     1.52624100     0.67053842
H     1.55318944     1.40820527     1.56784227
C     1.31868019     2.24974046    -0.29781229
O     1.71092521     2.41582566    -1.42820772
N     0.16550771     2.77930349     0.24809028
H     0.08025151     2.61854261     1.23942037
H    -1.68931770     3.98683460     1.59765863
H     4.09153822     2.13072967    -0.99699454
Cl     6.47853981     0.67841057    -1.74759832
