70
 energy: -143.152179058943 gnorm: 0.101722692943 xtb: 6.6.1 (8d0f1dd)
O    -0.24749194    -0.15789014     0.89542596
H    -1.06357913     0.27018324     0.63067531
H    -0.31474748    -1.00634016     0.45389688
O    -2.71911639    -0.05180944    -0.61736013
H    -2.60043287    -1.00175037    -0.56383214
H    -3.13972363     0.16019781    -1.45251314
O     1.99915249    -2.15324301     2.90375028
H     2.71897039    -2.67317827     3.26550727
H     2.15936764    -2.26504407     1.96504372
O    -3.96137038     0.72412289     1.90737771
H    -4.85629096     1.06299237     1.84718120
H    -3.63617674     0.54569165     1.02321152
O    -3.89964761     0.21225920    -3.12913450
H    -4.22559399    -0.57708800    -3.56505782
H    -4.04869365     0.92952598    -3.74772301
O    -0.32556320    -2.73033705    -0.58374134
H    -0.24374417    -2.38445764    -1.47425302
H    -1.01867376    -3.39178517    -0.62147172
O    -2.25735500    -1.73663065     2.48057652
H    -2.50977631    -0.84530606     2.72788481
H    -1.31735773    -1.85381856     2.62893663
O     0.47356665    -0.06493533     3.86592452
H    -0.04677651     0.02436377     3.06554533
H     1.05127295    -0.82574869     3.78373588
O    -0.05435632    -1.58308376    -3.14963907
H     0.71109088    -1.92451162    -3.61531728
H    -0.00311426    -0.62795789    -3.08295599
O    -3.03722068    -2.77120948    -0.05913139
H    -3.92175962    -3.14109555    -0.06978515
H    -2.81809845    -2.53012175     0.84264488
O     0.09148152     2.63935164    -3.75555961
Cl    -1.38838678     1.85914920    -3.43550312
H     0.61264540     2.64016329    -2.94378750
O     1.39031266     2.66832226     4.03907467
Cl     0.15445797     3.81959124     4.25909189
H     0.90427174     1.83505210     4.04256309
O     2.26519434    -2.98812922     0.30970255
Cl     3.31436964    -2.86211720    -1.02615522
H     1.37961768    -3.15518749    -0.03443642
O    -3.72345569     0.45265556     5.23654161
Cl    -2.25620700    -0.41240305     5.23257518
H    -3.92648541     0.70865389     4.32888978
C     5.38563349    -0.03686359    -0.24757255
C     5.09003857     0.02710708     1.10861842
C     3.98407285     0.69925216     1.59312822
C     3.04067099     1.19323105     0.68600715
C     3.26158486     0.95118271    -0.66953891
C     4.39109859     0.30549281    -1.15911506
H     5.73435874    -0.49162736     1.80618636
H     3.77881689     0.82199178     2.65086187
C    -1.40295451     3.25775318     0.61914227
C    -1.35238580     4.07255578    -0.51462001
C    -2.62147445     3.06912314     1.27753796
C    -2.49105044     4.69164278    -1.01446359
H    -0.40653679     4.14098908    -1.02750645
C    -3.74896528     3.71190768     0.79312626
C    -3.70457351     4.37631374    -0.42370421
H    -2.32789174     5.31677215    -1.88275367
H    -4.71969540     3.57595341     1.25137346
Cl     6.86630366    -0.80992303    -0.71147287
Cl    -5.11442730     5.04133212    -1.20644470
N     1.90536013     1.86249380     1.16838828
H     1.84081329     1.83320479     2.17373925
C     0.85556853     2.29854064     0.37553592
O     0.99004214     2.31215065    -0.82486645
N    -0.21360673     2.71717889     1.14355909
H    -0.18557373     2.52881079     2.13329623
H    -2.60188996     2.50755160     2.20580401
H     2.44806169     1.20521715    -1.32954764
Cl     4.47815199    -0.05161094    -2.85329566
