70
 energy: -143.136677332124 gnorm: 0.129236681966 xtb: 6.6.1 (8d0f1dd)
O     0.76523565    -3.18666377     0.21708305
H     1.33791054    -3.49835224     0.92009926
H     1.33971420    -2.86074557    -0.47796400
O    -1.26155353     0.04366659    -3.43320878
H    -0.62300804     0.26009105    -2.75147649
H    -0.98053926    -0.85300317    -3.62387177
O    -0.66586800     0.91313603     2.95342203
H    -1.39579291     0.44209647     3.35921751
H     0.13755210     0.68646613     3.42509488
O    -2.68605413    -0.34137029     3.96920545
H    -3.15259473    -0.82285982     4.65465908
H    -3.12558462    -0.19648066     3.12946835
O     2.95912049    -2.04702463    -2.12391490
H     3.19597296    -2.65166551    -2.82935767
H     2.55493952    -1.28008427    -2.53352244
O    -1.20429338    -2.66169939    -2.26102484
H    -0.98133641    -3.54831316    -1.97198469
H    -2.10025071    -2.67200209    -2.60233666
O    -0.83430799    -0.80752541    -0.09228219
H    -0.04459239    -1.29793836     0.14262600
H    -1.22847170    -1.43223064    -0.70360611
O    -4.05568312    -2.51927503    -2.67297784
H    -4.53340014    -1.85211492    -3.16898390
H    -4.14590767    -2.39144838    -1.72700934
O     1.70351753     0.16943673    -3.39424722
H     1.48624760     0.77572896    -2.68393595
H     1.11691084     0.55678878    -4.04631225
O    -3.30328951     0.09823587     1.26819961
H    -3.52478926     0.69840863     0.55400856
H    -2.42053490    -0.21628075     1.06531566
O    -3.72789728     0.10908642    -2.35739639
Cl    -4.74628133     1.40839922    -2.77673205
H    -2.85598624     0.33198079    -2.70478041
O     2.01381575     1.58925316     3.52448209
Cl     3.36567007     0.83051015     4.23014746
H     1.86241512     2.45970830     3.91174531
O     0.34650703    -1.46180219     3.06591603
Cl     1.45575191    -2.64470978     3.58694316
H     0.23068078    -1.77394073     2.16052112
O    -1.64547030     3.07055923     4.09429498
Cl    -0.91025240     3.50742115     5.56730793
H    -1.19870055     2.25092677     3.85101019
C     5.12162696    -0.60596663    -0.41329125
C     4.38118806    -1.20397344     0.59906272
C     3.16574525    -0.62317615     0.90738425
C     2.62498765     0.51500637     0.29992017
C     3.42594764     1.07934167    -0.69249315
C     4.61339112     0.48786776    -1.10787016
H     4.66805932    -2.05836503     1.19785715
H     2.60233697    -1.15058449     1.66922874
C    -1.52927344     3.08116719     0.13781571
C    -1.71053586     3.52178726    -1.17552938
C    -2.59997494     3.15351605     1.03348367
C    -2.79523002     4.32328526    -1.50825910
H    -0.99217311     3.27991780    -1.94222368
C    -3.68476667     3.95723052     0.72310924
C    -3.70829111     4.60373823    -0.50390213
H    -3.00531971     4.73449304    -2.48708783
H    -4.41219114     4.12355720     1.50667808
Cl     6.50557354    -1.30877171    -1.18527918
Cl    -5.05239199     5.69841222    -0.69807105
N     1.39418045     1.05043604     0.70975386
H     1.29683875     1.07402423     1.71261124
C     0.57530359     1.76077427    -0.15377059
O     0.77922561     1.92894773    -1.33248505
N    -0.45049823     2.30180198     0.59674460
H    -0.51717873     1.91830440     1.52643883
H    -2.53100771     2.79767902     2.05624834
H     3.25125443     2.09725215    -1.00120901
Cl     5.39099941     1.28467913    -2.43669152
