%nproc=8
%mem=4000MB
#opt=(noeigen,calcfc,ts,recalc=5,maxcyc=200) freq B3LYP/SVP em=GD3BJ

ts-4808.gjf

1 1
O  0.47269200643976  -3.62581947258147  0.25535086986786
H  0.64464161346782  -4.53473799180381  -0.11777620347034
Cl  -2.19349770779867  -2.62735924512201  1.37083538701427
C  2.12129966877535  -3.13405410863286  4.78296461887939
C  3.00629028605300  -2.20477965441669  4.38039616957234
C  2.88740788195657  -1.37515621003113  3.25055265025254
C  1.59154593745048  -1.52410877273939  2.57830380430858
C  0.68101482752455  -2.51142119764036  2.98450444374164
C  0.98542607292193  -3.30283765314962  4.06078159933615
H  4.03283051794575  -2.33965950504006  4.71609113209259
H  3.76101920378022  -1.14956210136102  2.65693350455067
C  -0.26613513311510  -0.55666525793567  -1.69720211306316
C  0.02111766143260  -1.48258422195334  -2.65124347998906
C  0.13044803883346  -0.50165612666916  0.89222864436302
C  0.52351791942605  -2.67311927932989  -2.03656604799188
H  -0.07188601795159  -1.12541099730320  -3.70777146213610
C  -0.21056133566122  -1.30568725320595  -0.36078783839108
C  0.40799645267483  -2.60813145567231  -0.59481455206150
H  1.10945608187241  -3.35260810751973  -2.66478841473669
H  -1.21904402083592  -1.65084720862644  -0.00308587994082
Cl  3.01095946169986  -4.34602024826239  5.64666122313044
N  1.19621992202743  -0.64970715100265  1.55009680378856
C  0.43955779805611  1.78856072003080  -1.47134628705373
O  0.67099388704955  2.92807943771153  -1.40866317056510
N  -0.13624239555173  0.80625384534660  -1.81845770694497
H  -0.72974753392785  -0.17178625647597  1.39554863808574
H  -0.25992919896889  -2.72533925789221  2.54006182499469
Cl  -0.26923117279351  -4.34878930325653  4.78071037349685

