%nproc=8
%mem=4000MB
#opt=(noeigen,calcfc,ts,recalc=5,maxcyc=200) freq B3LYP/SVP em=GD3BJ

ts-4818.gjf

1 1
O  0.45461911700372  -3.32519027992904  0.26079600142491
H  1.04004760525035  -4.05440876019134  -0.03390019058386
Cl  -2.26132507924055  -2.29027434470004  1.38878163860530
C  2.48043364859636  -3.23111777766953  4.61266407224664
C  3.38134694229493  -2.47434386792469  3.86724763432819
C  2.78770912310071  -1.55167221770855  2.87778911915919
C  1.41487967626802  -1.55518340303827  2.80751983999304
C  0.55838594112889  -1.95643750948585  3.86876214651429
C  1.01588749003194  -3.05415103765028  4.61006603914028
H  4.43413511502620  -2.56335128303033  3.73871417694431
H  3.23401301905980  -1.38709949976781  1.88236575606837
C  0.08876085725494  -0.14583525328175  -1.65930398582313
C  1.00263710264966  -0.89084217188985  -2.38223043601339
C  -0.09543650849395  -0.73763866935668  1.15266469242539
C  1.00716582120620  -2.27333452556330  -1.92091640683417
H  1.54277531537377  -0.77982431140113  -3.38304326530176
C  -0.22727451255848  -1.02087427121177  -0.31941293474114
C  0.41184156736372  -2.29618765647796  -0.61587443321488
H  1.94584295881502  -2.78303187743402  -2.12666489271421
H  -1.50213126412912  -2.27997939897239  -0.03093485444408
Cl  2.77090883479771  -4.42453488885872  5.88218082362867
N  1.02500316874229  -1.38953032802553  1.48550453456038
C  0.15203591880254  2.08769404728720  -1.83273920708017
O  0.78436826733466  3.01373706299349  -1.61766689007881
N  -0.54389609720590  1.04270626435036  -1.75460788603190
H  -0.80741997224702  -0.10703433732616  1.65694352355781
H  -0.51074164739515  -1.66920161392615  3.91675046449276
Cl  -0.04230522810688  -4.31142303042659  4.78659837962641

