70
 energy: -143.144461689036 gnorm: 0.109977827780 xtb: 6.6.1 (8d0f1dd)
O     0.87625824    -3.58566089    -1.04693602
H     0.67805855    -4.51328235    -0.90703126
H     1.14855200    -3.50174334    -1.96244279
O    -1.92823932     0.94500340    -1.80545477
H    -1.28379723     1.35570245    -1.22635247
H    -2.60876400     0.60028564    -1.22459859
O    -0.42663386     0.97491202     3.48224742
H    -0.94528755     0.71615773     2.71845217
H     0.42351571     0.53627737     3.41756579
O    -1.77067507     0.22298103     1.35794308
H    -2.69408020     0.22002954     1.09977022
H    -1.36930347    -0.36334050     0.71415245
O     1.07166884    -2.44276511    -3.42995498
H     0.83157391    -2.52176117    -4.35486212
H     1.09590362    -1.51017522    -3.20853484
O    -1.89172161    -4.45537901    -2.66848000
H    -1.46868561    -5.29577140    -2.48376629
H    -1.20883739    -3.78511091    -2.60724862
O     0.31372714    -0.81947190     0.16489270
H     0.51949489    -0.16280628    -0.50278038
H     0.61971252    -1.63625745    -0.23331943
O    -3.94422312    -3.19545631    -1.06458471
H    -4.81418440    -3.45924216    -1.36941676
H    -3.33593833    -3.43124443    -1.76724401
O     0.34485295     0.16373214    -2.97065131
H     0.52035881     1.06375985    -3.25080557
H    -0.60805914     0.11850021    -2.87447217
O    -4.00059898    -0.18970293    -0.33800430
H    -3.88495735    -1.10849676    -0.58656665
H    -4.58169575     0.22127311    -0.98047106
O    -4.12914264     2.33225137    -2.82851923
Cl    -4.41289231     1.38048432    -4.21227782
H    -3.22317192     2.35989795    -2.49830849
O     2.32979868     2.34780116     3.83007131
Cl     2.89719532     1.27290031     5.02330804
H     1.93502707     3.09418999     4.29659697
O     1.30279693    -1.27020439     2.64892423
Cl     2.24920750    -2.67040132     2.43698224
H     1.05019158    -1.01082527     1.75477707
O     0.07784206     2.51975816     5.66349505
Cl    -0.50612958     4.08978466     5.35502341
H    -0.40678510     1.87470723     5.13469085
C     5.09074858    -0.53759388     0.06283677
C     4.85115804    -0.34473164     1.41787299
C     3.68163157     0.30830392     1.75763971
C     2.84275150     0.92018953     0.82021384
C     3.10533551     0.67798470    -0.52785222
C     4.28436311     0.04782046    -0.90888847
H     5.53170431    -0.68809367     2.18585362
H     3.34938115     0.47147955     2.77694287
C    -1.39746941     3.32690527     0.62575253
C    -1.56210208     4.10385362    -0.52364948
C    -2.55515539     3.11659658     1.38033237
C    -2.80100119     4.49964738    -1.01165146
H    -0.66156825     4.16126994    -1.11365648
C    -3.80990912     3.46054493     0.90456453
C    -3.92533813     4.21830093    -0.25153433
H    -2.87811458     5.01396962    -1.96078865
H    -4.69632369     3.04778999     1.36791499
Cl     6.39758667    -1.47938627    -0.57779567
Cl    -5.51015505     4.60557994    -0.86877841
N     1.67356499     1.58423601     1.22218447
H     1.78097057     1.90200378     2.17257519
C     0.80385526     2.25444358     0.37646512
O     0.76540557     2.21907467    -0.83039243
N    -0.12570315     2.96613017     1.10972974
H    -0.05611452     2.86508792     2.11012767
H    -2.54803816     2.38773069     2.18415323
H     2.53568528     1.10419352    -1.33767301
Cl     4.57300162    -0.04033879    -2.61601035
