70
 energy: -143.140453875679 gnorm: 0.129621105140 xtb: 6.6.1 (8d0f1dd)
O     1.04460218    -3.86317015     0.49398022
H     0.72002642    -4.73482493     0.26115725
H     1.22713942    -3.45262493    -0.35305665
O    -1.50620613     0.58804220    -1.86469319
H    -1.03010753     1.41960005    -1.83033543
H    -0.83588175     0.10441309    -2.35060078
O    -0.74478843     0.75004763     2.94615495
H    -1.64093484     0.41818680     2.86786952
H    -0.18871326    -0.01424205     3.10733825
O    -2.94212755    -0.60227663     2.45807605
H    -2.41099934    -1.37527998     2.25880831
H    -3.47385249    -0.21967602     1.75791620
O     2.39113868    -2.54816132    -1.89956294
H     3.24906899    -2.17656999    -1.68692553
H     2.00582228    -1.97399429    -2.56379302
O    -0.21137345    -2.38550947    -2.86217318
H    -0.23960715    -2.63317749    -1.93632147
H    -0.10481290    -1.43302524    -2.83463939
O    -0.65135449    -1.30452899     0.16152063
H    -1.17164975    -0.56506861    -0.15758532
H    -1.36089163    -1.94792688     0.20550676
O    -2.84578711    -2.80130530    -1.59343817
H    -2.08442478    -2.86953629    -2.17223875
H    -3.42941837    -2.28189290    -2.14924554
O     1.02982443     0.10736696    -3.15810144
H     0.94442463     0.78931781    -2.48952945
H     1.68188908     0.38492426    -3.80394310
O    -4.56982641     0.12592252     0.37184731
H    -5.35065061     0.39100777     0.86111380
H    -4.81532089    -0.22255585    -0.48700866
O    -4.07055727     0.04376618    -2.47723634
Cl    -4.40417934     1.37996264    -3.47945266
H    -3.15766541     0.12631785    -2.17657028
O     1.88653398     2.22930587     3.57814966
Cl     2.74504733     1.01640692     4.41061326
H     1.10495217     2.51659247     4.06516443
O     0.75866669    -1.56762432     2.88999374
Cl     1.56132254    -2.75904797     3.80509870
H     0.64865033    -1.88931534     1.98722167
O    -0.78548529     3.24183709     4.26047704
Cl    -1.08184030     3.85011262     5.82359426
H    -1.12072173     2.33767743     4.23402129
C     5.03705232    -0.64729010    -0.79813952
C     4.56037687    -1.04471727     0.44506393
C     3.36128996    -0.48840877     0.84805326
C     2.82073333     0.62989363     0.20455570
C     3.36449420     1.02852565    -1.01622771
C     4.50420573     0.41476385    -1.52293840
H     5.06543630    -1.83055860     0.99114390
H     2.76498674    -0.80835422     1.69543327
C    -1.44334135     3.07898185     0.40645883
C    -1.47539428     3.89153696    -0.72958881
C    -2.63020749     2.91445265     1.12627548
C    -2.63661342     4.62592401    -0.93432116
H    -0.60824980     4.11446284    -1.33019726
C    -3.68592869     3.79896800     0.97745453
C    -3.74068359     4.67360153    -0.09776671
H    -2.57986411     5.36889959    -1.71924283
H    -4.47989416     3.85919606     1.71010894
Cl     6.40032757    -1.52355662    -1.41364438
Cl    -5.01737446     5.78715091    -0.51332439
N     1.68195110     1.24043982     0.75222649
H     1.46233157     1.16561791     1.73300355
C     0.75129675     1.91281049    -0.02405582
O     0.77621941     2.03278143    -1.22581288
N    -0.34210017     2.26857640     0.74155968
H    -0.38583080     1.92756986     1.68900370
H    -2.59402504     2.27427152     2.00165140
H     2.97512498     1.91208524    -1.49547613
Cl     5.18941366     1.07094729    -2.97389077
