%nproc=8
%mem=4000MB
#opt=(noeigen,calcfc,ts,recalc=5,maxcyc=200) freq B3LYP/SVP em=GD3BJ

ts-4369.gjf

0 2
O  -6.01397836165761  2.84269911356069  5.70904648697639
Cl  -6.91278451101929  1.87841637769856  4.77311204896703
Cl  -5.64543058141906  -0.23684698459928  3.60078594618015
H  -4.84900658490847  -0.60384738720940  2.61373558493903

