%nproc=8
%mem=4000MB
#opt=(noeigen,calcfc,ts,recalc=5,maxcyc=200) freq B3LYP/SVP em=GD3BJ

ts-4389.gjf

0 2
O  -5.38609555266837  2.28876413347008  5.17375664753548
Cl  -6.80439720211371  2.52149598817627  5.82247921416781
Cl  -5.12318965547899  0.25526055556062  3.23769517815706
H  -5.29852298468222  1.42518593098629  4.26962761735080

