70
 energy: -143.150354472097 gnorm: 0.120216000636 xtb: 6.6.1 (8d0f1dd)
O     0.55164128    -3.74350787    -1.00136047
H     0.98782722    -4.47025530    -0.55312168
H     1.10858910    -3.53695954    -1.75401284
O    -2.07642521     1.31198315    -1.78525712
H    -1.45635313     1.90414994    -1.35608593
H    -2.38806820     0.69729356    -1.11864372
O    -0.28285728     0.69108036     3.57742267
H    -1.05424976     0.35543211     3.11738734
H     0.37092324     0.01132618     3.40466956
O    -1.83756205     0.20852188     1.25135084
H    -2.50449649    -0.47155204     1.36106356
H    -1.29651181    -0.04682074     0.50208237
O     0.76271359    -2.47454078    -3.50405122
H     0.69377848    -2.58172640    -4.45436611
H     0.45397396    -1.57707810    -3.36774761
O    -1.67778581    -4.50560719    -2.66553640
H    -0.87977056    -3.97464107    -2.68971535
H    -1.53844822    -5.35609426    -3.08576996
O     0.28041945    -1.08391644    -0.45930744
H     0.93439260    -0.77980026    -1.09110639
H    -0.04577280    -1.93442566    -0.75859201
O    -3.94983385    -3.11581170    -1.46966888
H    -3.44207202    -3.48002784    -0.74243941
H    -3.32948528    -3.33363319    -2.16756426
O     0.14670694     0.31653991    -2.89390181
H     0.66420667     0.94998817    -2.39362595
H    -0.74978831     0.64530192    -2.80701323
O    -3.95046187    -0.56958183    -0.76306378
H    -3.86042928    -1.45046031    -1.13087565
H    -4.62635272    -0.03868240    -1.18809984
O    -3.94812254     2.70956550    -3.20477036
Cl    -4.51126368     1.50295912    -4.26690751
H    -3.33244929     2.20229290    -2.66236150
O     2.64202101     2.73409899     4.40836284
Cl     3.12396195     1.25536073     5.10279119
H     1.92312481     3.00792929     4.99042154
O     1.21604565    -1.35335590     2.43463571
Cl     2.45476971    -2.51047976     2.60134169
H     0.90187435    -1.36393644     1.52262114
O     0.31012718     2.65006838     5.64869577
Cl    -0.51534930     4.00056410     5.01948138
H    -0.01992108     1.92309298     5.10725050
C     5.10463227    -0.40953589     0.02638989
C     4.89698791     0.06556709     1.31553056
C     3.76850974     0.79908275     1.62886871
C     2.91287227     1.21478266     0.60321328
C     3.16347792     0.83284761    -0.71444297
C     4.23226910    -0.01430356    -0.98355636
H     5.52000911    -0.26026065     2.13803639
H     3.58318364     1.04481524     2.66870779
C    -1.51849226     3.21867992     0.88143552
C    -1.57242567     3.81620233    -0.38028380
C    -2.69939889     3.15991648     1.62699808
C    -2.78260952     4.23671837    -0.91721104
H    -0.68804124     3.98722051    -0.97272198
C    -3.88006804     3.64308725     1.08697150
C    -3.95529664     4.20484268    -0.17906723
H    -2.76770153     4.73184351    -1.87948131
H    -4.75103861     3.70711152     1.72580030
Cl     6.37817255    -1.56060791    -0.21514074
Cl    -5.52430961     4.59842370    -0.83168673
N     1.86365071     1.91468398     1.21868651
H     2.03530271     1.97428587     2.21001790
C     0.65403703     2.17401910     0.59387114
O     0.42271180     2.09737082    -0.58928058
N    -0.32138600     2.70513746     1.41528249
H    -0.29658143     2.39358830     2.37349431
H    -2.63947411     2.83939863     2.66193837
H     2.44579111     1.04665121    -1.48980011
Cl     4.51909347    -0.46662445    -2.63233986
