%nproc=8
%mem=4000MB
#opt=(noeigen,calcfc,ts,recalc=5,maxcyc=200) freq B3LYP/SVP em=GD3BJ

ts-2449.gjf

0 2
O  0.91334851322662  -1.24521070455084  4.41376305693673
C  -2.18738648765855  -3.55482609028645  1.07665456123910
C  -0.91123258578104  -3.99915324838783  0.78432086094904
C  0.20553469122050  -3.13435822978089  0.80983261899239
C  -0.09090348159256  -1.89056312356757  1.44408392240277
C  -1.31553402578710  -1.38639770682394  1.85323337910252
C  -2.43505820093095  -2.13116959355856  1.40172901171349
H  -0.72879666358307  -5.06430860292738  0.56070171811321
H  1.22582048564843  -3.37416287837921  0.49302429948919
C  -0.17075203246568  -0.28078921125859  6.52048625737539
C  -1.15549751940007  0.92921574344159  6.74949111991486
C  0.32602944381371  -0.18182941140994  5.07083639227538
C  -0.88801510881658  2.13458672929844  6.20891278099862
H  -1.89749242157313  0.75648728256922  7.51036077184145
C  0.67368965208338  1.26908848789475  4.71586403371817
C  0.09281064064374  2.31819577486313  5.29251521629444
H  -1.38395403669191  3.06057349918333  6.52146384320055
H  1.31107726012017  1.25023013751046  3.89526397950982
Cl  -3.45875439927606  -4.63205472385076  1.51226545473450
Cl  0.41301675955625  3.98856630366997  4.67356241321692
N  1.13983426294161  -1.07607775214817  1.33751965716342
C  1.44188931519429  0.01018652330828  1.64385630803439
O  1.82364832195037  1.00213672811365  2.09372845214904
N  0.17506681797190  -1.12309277312457  7.47370576675592
H  -0.45155444237553  -1.04451513231872  8.31197069771679
H  -0.67824974101915  -0.16061445703005  4.29024891533692
H  -1.50962220566164  -0.46196669851364  2.34399727964483
Cl  -3.95945707059487  -1.51705386079596  1.18921044382133

