70
 energy: -143.145144572167 gnorm: 0.103432377187 xtb: 6.6.1 (8d0f1dd)
O    -1.49185255     0.80430580     0.43260090
H    -1.48389200     1.73261811     0.19278659
H    -2.41581949     0.55364271     0.37976362
O    -3.93531803    -0.67022355    -2.71457860
H    -4.01697584    -1.45644649    -3.25727951
H    -3.34347227    -0.09770879    -3.20578479
O     0.64507462     0.06407446     1.80081725
H     1.31927394    -0.47447728     1.38277906
H    -0.05469751     0.25494665     1.17374059
O    -4.19217980    -0.00346146    -0.03712830
H    -4.93010374     0.59518705    -0.16529695
H    -3.96440652    -0.31512474    -0.91480922
O    -1.27437662    -1.18093474    -4.49369134
H    -1.34898974    -0.88795660    -3.58378152
H    -0.38457377    -1.53459453    -4.44355395
O     1.03306944    -3.73216637    -2.57017279
H     0.99964309    -4.40366416    -3.25377455
H     0.26777182    -3.86806297    -2.00875394
O    -1.27264654    -4.34558122    -1.33723681
H    -1.91652137    -3.91480139    -0.77226656
H    -1.35673752    -5.27399018    -1.11290650
O    -2.28042784    -2.42245553     0.30908336
H    -1.88241714    -1.83072065     0.95000105
H    -3.16793886    -2.06756046     0.23351753
O    -0.01721780    -0.21104470    -1.94973064
H     0.08120393    -0.87641450    -1.26640437
H     0.03461357     0.53573110    -1.35058356
O    -3.03702162    -2.99155289    -3.91847717
H    -2.24698630    -3.46552093    -3.65288948
H    -2.63650190    -2.49530604    -4.63448088
O    -1.29313553     2.88655248    -2.45381996
Cl    -1.49271698     2.03949773    -3.91800155
H    -0.42443264     2.61377403    -2.13517658
O     2.13233195     3.45954030     4.32280609
Cl     3.01078401     3.25709642     5.76797152
H     1.38534445     2.84913558     4.32449288
O     1.18106333    -2.22540569    -0.01996241
Cl     1.51581461    -3.49200912     1.06853250
H     1.39540305    -2.61911038    -0.87415280
O     0.10069940     1.76386708     3.83318398
Cl    -0.90279438     1.07040472     5.02199474
H     0.09262132     1.01911291     3.22010646
C     4.80067559    -0.02514260     0.49292939
C     4.91712913     0.67253139     1.68892774
C     3.95726471     1.60407445     2.03616932
C     3.08424274     1.99569943     1.01570210
C     3.10549230     1.45859988    -0.27114210
C     3.90327892     0.34442879    -0.50472457
H     5.63081565     0.26911011     2.39514140
H     3.99092160     2.22727439     2.92300896
C    -1.25418876     4.06437805     1.33285983
C    -1.71152024     4.38967204     0.05344230
C    -2.21172970     3.73202480     2.29541572
C    -3.04857734     4.28852674    -0.30948674
H    -1.06471989     4.81046344    -0.69951848
C    -3.52819075     3.54798412     1.90538794
C    -3.94742641     3.75204455     0.59898703
H    -3.23029148     4.44430673    -1.36497135
H    -4.21701354     3.12011542     2.62179747
Cl     6.00745032    -1.22861288     0.17581347
Cl    -5.55629872     3.28786532     0.11043053
N     2.19373279     3.01272984     1.39276464
H     2.37427991     3.38900472     2.31013844
C     0.96377467     3.28012923     0.81266571
O     0.58914974     3.00333401    -0.30190815
N     0.10866991     3.94963105     1.66637327
H     0.35404143     4.04894066     2.63888470
H    -1.94795964     3.50997967     3.32427206
H     2.45079751     1.81144298    -1.05142501
Cl     3.78350150    -0.53639227    -1.99306487
