70
 energy: -143.083097288270 gnorm: 0.093281072587 xtb: 6.6.1 (8d0f1dd)
O    -1.87482692    -3.59256037    -3.41390710
H    -2.36538202    -3.42409437    -4.22032692
H    -1.16826666    -2.97045309    -3.59582414
O     2.42624839     0.75971922    -3.86748844
H     2.83517682     0.25615526    -3.16141502
H     2.67906315     1.67382441    -3.72665357
O     0.27989190     2.70396563     5.85504852
H     0.71193330     3.55106359     5.73215064
H    -0.67475436     2.77846709     5.80566806
O    -0.17270724     0.15535641     3.85531289
H    -0.25881615     0.91020016     4.44023608
H    -0.92834766    -0.40630908     4.03663551
O    -5.16198815    -3.18727316    -0.73283396
H    -5.70768696    -2.93429733     0.01386225
H    -4.77422192    -4.04525667    -0.55161655
O     0.09052473    -1.43305514    -3.45008871
H     0.28786845    -0.55003097    -3.76736106
H     0.88786028    -1.96547537    -3.43894540
O    -0.70232250    -6.04331283    -2.09528169
H     0.11952169    -5.55115621    -2.13640873
H    -1.40269847    -5.40383102    -2.23626074
O    -0.53939998    -2.03421953    -0.54914944
H     0.04940110    -2.02895021    -1.30586848
H    -1.21397206    -1.43844909    -0.87982542
O     1.62860042     4.29631347    -3.00846891
H     1.69203150     5.08562661    -2.46782129
H     1.81157808     3.54769482    -2.43800672
O     3.23908200    -2.23095356    -3.22114391
H     2.77757072    -2.81598023    -3.82454218
H     3.94620377    -2.75989659    -2.84759825
O    -3.36864226    -1.12072452    -0.28425324
Cl    -4.39436496    -0.09651674    -1.17871038
H    -3.89475356    -1.92907361    -0.26514696
O    -1.06507921     4.74770557     2.66825509
Cl     0.36150150     4.25192891     1.88070342
H    -1.63573708     5.23755809     2.06411834
O    -4.09793463    -1.37241841     2.20421725
Cl    -2.52782650    -1.57311710     2.83321989
H    -4.01229741    -0.84526761     1.40087148
O     3.99745467     3.47821267     2.40307091
Cl     4.90574560     3.09728712     3.79269825
H     4.34421152     2.88377467     1.72705965
C     5.17352827    -0.16683150     0.50312065
C     4.48852737    -0.88145824     1.47821289
C     3.18876176    -0.52737382     1.78630780
C     2.59877724     0.59596174     1.19730328
C     3.25124149     1.29591635     0.18278398
C     4.50912695     0.83879721    -0.19293896
H     4.96701232    -1.70766338     1.98740058
H     2.69301607    -1.13492329     2.53538413
C    -2.08652507     2.01513174     0.83045301
C    -2.07312339     2.74722669    -0.35939356
C    -3.26507755     1.92700244     1.57684731
C    -3.24566277     3.35413487    -0.79123081
H    -1.17340063     2.75723071    -0.95333371
C    -4.44983457     2.44730834     1.08218085
C    -4.42917131     3.19096844    -0.08855619
H    -3.33455843     3.92395766    -1.70705543
H    -5.38769777     2.21623707     1.56983825
Cl     6.83651873    -0.52044152     0.16454841
Cl    -5.91776899     3.66341865    -0.86540088
N     1.28107077     0.94245059     1.53365147
H     1.02487309     0.48734479     2.39562374
C     0.30916526     1.49702523     0.71593462
O     0.55470339     1.84169501    -0.41550167
N    -0.91945201     1.41703679     1.34231700
H    -1.03282018     0.94187499     2.22391610
H    -3.34161433     1.47622192     2.56090172
H     2.82989505     2.15084220    -0.32073754
Cl     5.27142620     1.40874687    -1.64187183
