70
 energy: -143.140463722820 gnorm: 0.104502911297 xtb: 6.6.1 (8d0f1dd)
O    -0.75055329    -0.31390399     1.94131910
H    -1.68402615    -0.10474865     1.87635388
H    -0.41358613    -0.36254116     1.04497862
O    -2.56269315    -0.50399405    -1.11528120
H    -2.53010279    -1.42846382    -1.36753565
H    -3.38598836    -0.22331636    -1.51869552
O     1.92054529    -3.42728919     3.75028516
H     1.76196233    -3.58192774     2.81739879
H     2.18679351    -4.28097137     4.09622876
O    -3.84793519    -0.29409287     1.56455902
H    -3.51957958    -0.35400358     0.66570849
H    -4.17416117    -1.16748139     1.78840621
O    -5.21773652     1.19746619    -1.40284216
H    -4.44869238     1.46853878    -1.90725267
H    -5.82675502     1.89768489    -1.64394039
O     0.58336151    -1.01938352    -0.45915128
H     1.15856859    -0.79898904    -1.19393089
H    -0.31868647    -0.83269671    -0.72522820
O    -1.40479805    -3.07523422     1.65906788
H    -0.65640926    -3.56163694     1.30883360
H    -1.08011531    -2.41345092     2.27222574
O     1.58398114    -0.60189065     3.39590245
H     0.78557238    -0.45898247     2.88457196
H     1.37321900    -1.42125200     3.84708180
O     1.39901600    -0.22320703    -2.86077742
H     2.12858478    -0.27559359    -3.48071584
H     0.90661304     0.59611056    -2.93558265
O    -1.68252105    -2.93341090    -1.21693393
H    -0.72527612    -2.98414032    -1.23807639
H    -1.94310032    -3.24315898    -0.34774301
O    -0.79822175     1.48578438    -3.43142712
Cl    -2.47510547     1.39023576    -3.71443534
H    -0.70858439     2.00555750    -2.62372206
O     2.23442812     1.94978584     4.60250663
Cl     0.78865977     2.81971577     4.36982561
H     2.04783176     1.04160239     4.33610143
O     1.27572644    -3.31817694     0.89447303
Cl     2.82099346    -3.51859194     0.20661587
H     1.01861494    -2.40581299     0.71538696
O    -3.43494384     2.05737972     3.68847733
Cl    -2.09477734     1.16662442     4.24675107
H    -3.74678749     1.50135041     2.96447939
C     5.30249825    -0.04891941    -0.10610549
C     4.82580458    -0.18926518     1.19150341
C     3.63786652     0.45919027     1.47078409
C     2.88853547     1.08286541     0.46757758
C     3.41351833     1.25902587    -0.81236622
C     4.57348154     0.55916272    -1.12394054
H     5.43586142    -0.73758818     1.89719987
H     3.30545651     0.44046711     2.50284444
C    -1.45830694     3.57217262     0.35440176
C    -1.72251612     3.94382461    -0.96618369
C    -2.44393710     3.96212481     1.26562500
C    -2.98945558     4.39238286    -1.31736679
H    -0.98727651     3.93162470    -1.75462517
C    -3.67539532     4.47457986     0.89150885
C    -4.02208256     4.67382582    -0.43671992
H    -3.23335682     4.64752019    -2.34047596
H    -4.41542448     4.68393392     1.65263882
Cl     6.90141823    -0.55860903    -0.54070874
Cl    -5.63892829     5.05155992    -0.97127288
N     1.65857356     1.63348950     0.85942187
H     1.47496988     1.58927015     1.84941638
C     0.65686635     2.22259350     0.10420434
O     0.55126146     2.09693366    -1.09257953
N    -0.37332628     2.80401580     0.81758003
H    -0.47891131     2.81279855     1.81988875
H    -2.31641341     3.73641424     2.31929315
H     2.78965882     1.70500747    -1.56990484
Cl     5.01905115     0.45578101    -2.79610360
