%nproc=8
%mem=4000MB
#opt=(noeigen,calcfc,ts,recalc=5,maxcyc=200) freq B3LYP/SVP em=GD3BJ

ts-16.gjf

0 1
O  0.35267400504922  -4.55083336764145  -1.97925026465773
Cl  1.33396764318496  -6.26124750533461  -1.82424557345451
H  1.13970190018690  -4.01081938999472  -2.12741044645999
C  -5.00619996653979  -1.68623832166905  -1.51163191159374
C  -4.30377098588353  -2.75739851496181  -0.87778528332504
C  -2.94324544272107  -2.81756856075949  -1.05170967323523
C  -2.31005383926136  -1.76380333037094  -1.79157205724970
C  -2.97289414088508  -0.80706830130191  -2.44935016643790
C  -4.36752740960250  -0.71028038383654  -2.21109695584150
H  -4.86687576372140  -3.42924884265007  -0.19481940226524
H  -2.37756469747084  -3.47874150704152  -0.44347141376375
C  2.36573925355083  -0.64419108549037  -2.40122606421433
C  2.48202869442651  -0.28094860605732  -3.69386804623719
C  3.41618602253159  -0.34907528754313  -1.46642819988678
C  3.74262830007306  0.16218603183556  -4.14541132472334
H  1.66719039601386  -0.45309726259500  -4.38960574176114
C  4.64350577320353  0.24681784745742  -1.84520831720503
C  4.74268228310284  0.40353751404141  -3.20662810680370
H  3.82315598743643  0.20002972287018  -5.20015651293840
H  5.40914141374624  0.45822516553960  -1.12293121112355
Cl  -6.73024454840912  -1.53576264119293  -1.44555919869291
Cl  6.36620849233248  0.96217027301944  -3.67732443392898
N  -0.93268419897488  -1.89093951095859  -1.73431464489316
H  -0.50049049579516  -2.80228249891257  -1.47452510430544
C  -0.06334965147379  -0.94327542178842  -2.27102440962786
O  -0.34435618833059  0.02491774954838  -2.90320084476271
N  1.23591589849606  -1.37382982139300  -2.02433567404459
H  1.35011492169533  -1.47816770831204  -1.01822816798320
H  3.17100211211572  -0.59543356099537  -0.41164864957168
H  -2.55335529396279  -0.05196301413712  -3.11400297544873
Cl  -5.09609115098173  0.69209513819703  -2.77885125669281

