%nproc=8
%mem=4000MB
#opt=(noeigen,calcfc,ts,recalc=5,maxcyc=200) freq B3LYP/SVP em=GD3BJ

ts-26.gjf

0 1
O  0.46498740148133  -4.16877891281788  -3.21980473556360
Cl  1.15861021656646  -6.17390890918228  -1.57336788312353
H  -0.14827822394576  -4.84230638808159  -3.12675229095655
C  -4.97786651139518  -1.34095198327582  -1.53356216715613
C  -4.23023617670314  -2.25340395500369  -0.68223324853615
C  -2.94419577483227  -2.58081157723735  -0.92305387051057
C  -2.23140513551567  -1.85340674827154  -1.93166666822453
C  -2.87146676144772  -0.81812387455481  -2.55028709215495
C  -4.23827417639527  -0.50936946404097  -2.37733572978449
H  -4.81397977042534  -2.93468728662414  -0.07194453321883
H  -2.38432361787795  -3.16270069569686  -0.25652248537537
C  2.51434466757442  -1.01873210341599  -2.56214636303766
C  2.93484940901692  -1.15640822036745  -3.90580557488979
C  3.21642425564115  -0.31515226428904  -1.57026166151938
C  4.11758167531867  -0.44109607736657  -4.16920647416461
H  2.45045011574213  -1.80922387074929  -4.56835902965948
C  4.37632701313477  0.32838971304326  -1.89512004758944
C  4.82477971453233  0.29251689883472  -3.21389235336864
H  4.58180893959951  -0.65249724072144  -5.10264878773676
H  4.95595000331383  0.81842537675787  -1.13053205795325
Cl  -6.70069258022014  -1.49797417344049  -1.39015622105216
Cl  6.30624601704548  1.13092227912632  -3.46461975134964
N  -0.92802380181502  -2.20480628730889  -2.24680451046312
H  -0.27931048785967  -3.34347317225400  -2.71972141198085
C  0.08229658335914  -1.23813897416014  -2.49397093586773
O  -0.14298357335296  -0.09689240104092  -2.89613170134251
N  1.30306429325585  -1.71091706678209  -2.16257815218214
H  1.37063205394222  -2.75651173865987  -2.22048345628904
H  2.75121323436109  -0.15774918835511  -0.59189882120396
H  -2.33887192846720  -0.05397943945977  -3.06916940889087
Cl  -5.09616335446350  0.75508040287386  -3.17711354345434

