%nproc=8
%mem=4000MB
#opt=(noeigen,calcfc,ts,recalc=5,maxcyc=200) freq B3LYP/SVP em=GD3BJ

ts-46.gjf

0 1
O  0.25316367125335  -4.54450396036522  -6.01507818118109
Cl  0.82675894078440  -5.80600864391047  -1.24773957327819
H  0.03018444293731  -5.45518278960725  -5.67785348136861
C  -4.71244957671497  -1.17698435291224  -1.75874886830196
C  -4.01235329659993  -2.03859102070826  -0.93840614781626
C  -2.66083985704656  -2.23108641733642  -1.13115570470677
C  -1.98904663002552  -1.59986883163320  -2.23011655593851
C  -2.72401982205150  -0.66451006396989  -3.03773322991603
C  -4.12015573033837  -0.60699450656360  -2.87627554808308
H  -4.58297100393869  -2.43699116635878  -0.06023525934314
H  -2.16568079072862  -2.99176980808919  -0.59111590522766
C  2.56733945437817  -1.67709403871965  -2.98242626571896
C  3.85615654351935  -2.31474532955479  -3.12423665757246
C  2.60124844478724  -0.36219166410986  -2.42127717989225
C  5.03161171765170  -1.61389672395514  -3.05358137672018
H  3.91987808794261  -3.30616691469197  -3.40701001754014
C  3.70895138277904  0.41230542192827  -2.64887712806533
C  4.95488603258745  -0.15560883217364  -2.97213901310562
H  5.92347275173638  -2.15350997280946  -3.25137457532676
H  3.73975209113122  1.47635967559809  -2.46709334510126
Cl  -6.32396611445579  -0.63320864480529  -1.39901634759556
Cl  5.96270809012179  1.19054466196206  -3.21060113515406
N  -0.68002156856957  -1.94718670115524  -2.36679749589858
H  -0.70307700985740  -3.84472680150300  -6.05104345965437
C  0.29194693387630  -1.27886765024539  -2.87666922809968
O  0.25108121436917  -0.09184043210853  -3.10016480898482
N  1.36037319056339  -2.14387811761147  -3.40701783332614
H  1.10901550166536  -3.04725209548905  -3.83590971030111
H  1.79731783036605  0.15138345254190  -1.86416393917327
H  -2.24884777696064  -0.23351706906725  -3.92755145935120
Cl  -4.94384881927689  0.55456662780575  -3.81604697051488

