%nproc=8
%mem=4000MB
#opt=(noeigen,calcfc,ts,recalc=5,maxcyc=200) freq B3LYP/SVP em=GD3BJ

ts-56.gjf

0 1
O  0.11414388367509  -4.73010325033147  -7.04859222233889
Cl  0.85949934641530  -5.62507429632206  -1.45108401681903
H  -0.42015937369108  -4.56380735246417  -6.30899785758386
C  -4.50067198559178  -0.79109779756962  -1.78786185650535
C  -3.93350759907814  -1.74857323012379  -0.96591482223245
C  -2.69170703254546  -2.30682090323287  -1.26644023772952
C  -2.02673035451337  -1.87150348433996  -2.41211063213852
C  -2.65614621345260  -0.88013337258378  -3.25181822296977
C  -3.95120232526673  -0.42631972648997  -3.00487842507498
H  -4.57507328965235  -2.22806809649155  -0.26019526739031
H  -2.10429140771288  -2.87511340397748  -0.57544791750145
C  2.54338834363537  -1.46137738847275  -2.86974539102460
C  3.75950376187158  -2.05941111141948  -2.97132049817307
C  2.49162829087575  -0.12003804599965  -2.63629736078864
C  4.88922264022520  -1.34086097599764  -3.14469909488030
H  3.75589236200487  -3.12034051773942  -3.23497196442553
C  3.68661929573889  0.64792834679301  -2.56477164290617
C  4.86345592552160  0.05841170946071  -2.85384819067889
H  5.83207092539453  -1.73460955391752  -3.40333120688770
H  3.72910110986699  1.63381263263134  -2.12942941421571
Cl  -6.08498732071532  -0.28026689295770  -1.43195708860112
Cl  6.39586064742771  0.77606047383770  -3.10050581818476
N  -0.81567905112103  -2.25382675332418  -2.77338961367167
H  1.02168989973225  -4.01991672868669  -6.74709077389264
C  0.14875919030541  -1.45056802912142  -3.26503827639666
O  0.00464850284171  -0.43602052135596  -3.93381124481612
N  1.37476359807939  -2.17980270196049  -3.07515861467177
H  1.16311702941209  -2.91489451193276  -2.37150659334424
H  1.50642396191659  0.34601754144109  -2.47017826807890
H  -2.05161042809657  -0.74593619055320  -4.12341045342601
Cl  -4.82483625262218  0.47345337998741  -4.17976269043684

