%nproc=8
%mem=4000MB
#opt=(noeigen,calcfc,ts,recalc=5,maxcyc=200) freq B3LYP/SVP em=GD3BJ

ts-1682.gjf

0 2
O  2.00515374825620  3.16058177452557  -1.38829960506296
H  2.80257499004074  3.19646606318007  -0.84229407303196
C  3.12165984516729  -3.51874093286499  0.82612775287414
C  3.28029478070790  -2.62270927229462  1.92404028752255
C  2.70088318809363  -1.38079691467199  2.06280290093481
C  1.81522685385056  -1.02144950257263  1.05327976953198
C  1.36482170096460  -2.02736711362722  0.13077431677587
C  2.08120473543323  -3.35302325787686  -0.04632644779288
H  3.76587990362487  -3.07610635415085  2.82355085271334
H  2.76706151482988  -0.67778896687203  2.82812850684597
C  -0.77435957360435  2.40401077479915  -0.28878043568794
C  -0.43628498292772  2.36666583588667  -1.65487378323073
C  -1.97700955293785  2.10872613522169  0.12024168417095
C  -1.26618063223088  2.52600825349333  -2.65976425287286
H  0.67016675898216  2.60381115844434  -1.64205628252670
C  -3.06318891794484  2.05872125710811  -0.82126244197352
C  -2.61143357183033  2.49758469019667  -2.08930361150265
H  -1.04090284212611  2.70375035929301  -3.69911667077956
H  -4.13019601822667  2.02862096797292  -0.65896713795325
Cl  3.98878346285693  -4.94525344511256  0.79911352163598
Cl  -3.47068357414602  3.66917626871462  -2.93128658822352
N  1.45675931711300  0.48016187501657  1.33792591070052
H  1.12624163082239  0.42629326210948  2.28796778504299
C  0.57295382328108  0.91656973567903  0.31539075700272
O  0.11013404242491  0.12916211483939  -0.51768254721160
N  0.23566238659239  2.12252907825741  0.62316790435955
H  0.34033806415850  2.65779723715649  1.49065292424125
H  -1.92472719260418  1.68117630581356  1.12043169529320
H  0.57275217088423  -1.84033746758727  -0.57030013136077
Cl  1.52105659403764  -4.33946933491274  -1.26169565665510

