%nproc=8
%mem=4000MB
#opt=(noeigen,calcfc,ts,recalc=5,maxcyc=200) freq B3LYP/SVP em=GD3BJ

ts-1370.gjf

1 1
O  -3.30703788692107  -4.15689553030637  -2.05017531884978
H  -2.98410280302600  -4.81634618542982  -2.68349895265601
C  1.93957517854219  1.90725340827129  3.80729867722461
C  2.48242692698230  1.44494279331292  2.66334868873869
C  1.74316305104797  0.92424047525574  1.60302797476387
C  0.37216222824452  1.09598621263457  1.67906462659875
C  -0.18965029808370  1.79492767787434  2.78624437936760
C  0.58806243574230  2.17289518535906  3.82677585813162
H  3.52536777734631  1.28829988067128  2.52326184325164
H  2.17733494635030  0.42958889507663  0.74540650534677
C  -1.22879712054271  -0.36502587546475  -2.50531917156504
C  -2.47928575240010  -0.68253978367480  -3.02317304140574
C  -0.54054302146155  -1.52216934414981  -1.96140641571203
C  -2.95836318195928  -2.01272047436237  -3.01734316663393
H  -3.22206179989570  0.09028382313173  -3.27288766214606
C  -1.17532509786150  -2.77982090299743  -1.76935827291857
C  -2.50745704629814  -3.02133969262310  -2.20804019533585
H  -3.93847379802323  -2.22127568984790  -3.40152425698432
H  -0.59577742300447  -3.62210393036579  -1.29074300670385
Cl  3.30551378580961  2.43004784751067  4.84978090509854
N  -0.36452618803011  0.41521561697358  0.74954368927735
H  -1.25713827881693  0.79530591924195  0.47784514983549
C  -0.34655248720550  1.94120522473143  -2.30371930663177
O  0.19169643961559  2.78463314208646  -1.67434561729084
N  -0.75454072028057  0.94677840088696  -2.72807962646028
H  0.47049476137453  -1.37417572862847  -1.62057170229511
H  -1.27423217867163  1.81277875832943  2.81679567417599
Cl  -0.36106271129703  3.05981851739879  5.05187220099615

