%nproc=8
%mem=4000MB
#opt=(noeigen,calcfc,ts,recalc=5,maxcyc=200) freq B3LYP/SVP em=GD3BJ

ts-1390.gjf

1 1
O  -3.92223929517147  -3.89030536070914  -2.97219603344372
H  -4.11856880275697  -4.33139759205027  -3.75280150982091
C  1.87001556806533  1.93026219998309  3.47622369154288
C  2.51732316533002  1.15230740170296  2.56400728377159
C  1.78584085146885  0.58249769451030  1.57198536580387
C  0.34021309874507  0.74444763457093  1.56611108679257
C  -0.26218588690007  1.43439434041720  2.70563615462500
C  0.50682893592193  1.99185645893083  3.63916384320446
H  3.56849701576474  0.91505731085153  2.49131781165511
H  2.15760780873277  0.14451873912707  0.66752979174443
C  -1.33320457451129  -0.51002674530338  -2.46679597325180
C  -2.69694179568656  -0.41157128943342  -2.90695950395036
C  -0.97858517272534  -1.73997337942810  -1.90879068284829
C  -3.33586880538003  -1.58091338483642  -3.20331519381794
H  -2.95645296381005  0.51864266003314  -3.37480025550831
C  -1.79713287322955  -2.86956860175247  -2.12092042677236
C  -3.00515510169650  -2.84979619937468  -2.81723498123861
H  -4.37434976656962  -1.50269748918708  -3.56998166099311
H  -1.37512000248879  -3.74470523876640  -1.64850890899722
Cl  2.81556509392426  2.23763511566375  4.97372025771632
N  -0.43446208729370  0.12997567611078  0.66429118195024
H  -1.37932419882308  0.52020664604058  0.62814435467950
C  -0.03613635081071  1.39693880074949  -1.62767242738901
O  0.57870146362417  2.25455478262786  -1.10605352518231
N  -0.81837682550004  0.80674583148279  -2.31109607024354
H  -0.07736531239956  -1.90566755938095  -1.27173736226341
H  -1.32775541593969  1.38352181247197  2.69754409686464
Cl  -0.04705349990136  2.31810527291736  5.21501961865762

