%nproc=8
%mem=4000MB
#opt=(noeigen,calcfc,ts,recalc=5,maxcyc=200) freq B3LYP/SVP em=GD3BJ

ts-1430.gjf

1 1
O  -3.89040454041233  -3.60402359984518  -4.93315536754211
H  -3.43942871622505  -3.59773437449896  -5.89809123802348
C  1.82867216465282  2.12272392090935  3.19296355552105
C  2.46238472689791  1.80518739541691  1.96471202596743
C  1.79041565026291  1.16905362990184  0.91809894133635
C  0.51881882432793  0.52722419820172  1.02679867239285
C  -0.18915551210213  0.94565827227971  2.29358856030788
C  0.52006518272379  1.59922180070587  3.27588911187248
H  3.50392839892786  2.03167207531649  1.87485613030456
H  2.24156180265213  1.12730007681377  -0.06531644295122
C  -2.23517697918146  -1.21549807188489  -2.25824970545149
C  -2.90451622625127  -0.66221135829654  -3.39216763032977
C  -2.82350231034185  -2.45383117651230  -1.76779567754608
C  -3.41842605452112  -1.38709100026626  -4.41840693400053
H  -3.20704090877051  0.37084938027580  -3.46052191736328
C  -3.26408667037887  -3.23159812284124  -2.80355084207014
C  -3.41660663670222  -2.76605115400814  -4.10796165515732
H  -3.94260630109877  -1.00558081189785  -5.24730056778240
H  -3.44098712513555  -4.26015149009060  -2.63356363938266
Cl  2.44664227805254  2.69358697005896  4.62598293201316
N  -0.15903797312969  -0.16297643720039  0.10655510161539
H  -0.54065462216868  -1.00684115580613  0.54878186800130
C  -0.21247212549703  0.05901207484850  -1.49119904258502
O  0.76321616864984  0.43795222931059  -2.04507103562872
N  -1.17964735517594  -0.61059215813067  -2.00334006494578
H  -2.86181712849911  -2.67492667489698  -0.73443900931243
H  -1.22500370839439  0.58867567121271  2.32071644122926
Cl  -0.57195523018014  2.10085862716118  4.76310264400884

