%nproc=8
%mem=4000MB
#opt=(noeigen,calcfc,ts,recalc=5,maxcyc=200) freq B3LYP/SVP em=GD3BJ

ts-921.gjf

0 2
O  4.14192903597759  -3.13204039785187  -3.45059915728798
Cl  5.97693708269886  -2.68622759038879  -3.89838438537972
H  3.64926752118948  -2.29423056918706  -3.33868791342113
Cl  1.16113045977050  -0.14293167011528  -1.21289964576337

