%nproc=8
%mem=4000MB
#opt=(noeigen,calcfc,ts,recalc=5,maxcyc=200) freq B3LYP/SVP em=GD3BJ

ts-951.gjf

0 2
O  5.31664354230811  -2.89518883742563  -5.14447933360095
Cl  4.09094306422442  -2.47779181150184  -1.06593043166168
H  4.34786007501877  -2.85809950654856  -5.09528297877315
Cl  2.45561347330687  -2.93196212587653  -2.20354055589229

