70
 energy: -143.136576341290 gnorm: 0.113801651019 xtb: 6.6.1 (8d0f1dd)
O    -2.45707087    -0.57039181     3.64806870
H    -3.27261343    -1.04406665     3.82087060
H    -2.18513951    -0.51946136     2.73002834
O    -2.54564308     1.17889630    -1.37366418
H    -3.36078882     1.43490732    -0.93853825
H    -1.84427967     1.13624230    -0.72127773
O     0.22219090    -0.65714862     3.59309296
H     0.53420324    -1.36220853     3.02311276
H    -0.71067410    -0.77683472     3.77957752
O    -1.90113409    -1.13231661     1.10362898
H    -2.81217529    -1.20418266     0.81349423
H    -1.30337477    -0.78050737     0.44162255
O     0.77978357    -1.88802549    -3.49292499
H     0.94072913    -0.99277596    -3.79618066
H     0.00309622    -2.24791755    -3.92486547
O     0.06943987    -1.65572073    -0.73376834
H     0.83328417    -1.13881263    -0.47168840
H     0.19848352    -1.65048394    -1.68385242
O    -2.67871168    -2.02684762    -2.24174764
H    -3.04231982    -1.71084092    -1.41273237
H    -1.76266361    -2.23078082    -2.04526411
O    -5.01606068    -0.67501590    -2.98467312
H    -4.22603048    -1.21246567    -3.06428590
H    -4.69981598     0.04648421    -3.53126565
O     1.56749179     1.03427361    -3.64817488
H     2.47721537     1.33700145    -3.63830231
H     1.11269155     1.83477901    -3.38043311
O    -4.34298681    -1.26722964    -0.03953351
H    -4.65332889    -0.95857486    -0.89262105
H    -4.98360763    -1.92861892     0.22787528
O    -1.17809591     2.35363832    -3.44602458
Cl    -2.03139796     1.94491788    -4.86235273
H    -1.57238364     1.93639348    -2.67076312
O     1.60410701     4.07241106     1.47987164
Cl     0.44755508     4.87083249     2.44219981
H     2.39959223     3.98561747     2.01862689
O     0.89313039    -2.56369801     1.99396060
Cl     2.10484751    -3.28865657     1.04141636
H     0.20397515    -2.55106645     1.31905940
O     1.82189718     0.99950834     5.01885401
Cl     0.85229271     2.39985763     5.01179247
H     1.21124932     0.32216674     4.70436139
C     5.06241234    -0.80285385     0.49008845
C     4.77732210    -0.90383343     1.84627765
C     3.55680846    -0.42520390     2.28325490
C     2.75039540     0.25549045     1.36497170
C     2.99772443     0.23808411    -0.00740610
C     4.15788450    -0.36870325    -0.47456685
H     5.46876001    -1.23252609     2.61094074
H     3.31531837    -0.47936006     3.33906981
C    -1.58285329     2.52318077     1.41915271
C    -1.57784774     3.27297081     0.24031119
C    -2.72987048     2.43931160     2.21361774
C    -2.68858961     4.04852073    -0.06700680
H    -0.66537410     3.30987039    -0.33274753
C    -3.85342922     3.16129919     1.84563402
C    -3.80452046     4.01623647     0.75440870
H    -2.67416833     4.75358698    -0.88798720
H    -4.74620898     3.10016875     2.45390898
Cl     6.56144121    -1.37572961    -0.16560530
Cl    -5.26159726     4.73166906     0.11589220
N     1.57404855     0.85764972     1.83735637
H     1.42325249     0.82384917     2.83328448
C     0.62575674     1.45864240     1.02472815
O     0.70472503     1.72732910    -0.15034877
N    -0.51908227     1.66982173     1.76836810
H    -0.54680594     1.26663196     2.69168682
H    -2.69201389     1.76822712     3.06546077
H     2.49461945     0.87212525    -0.71933457
Cl     4.41008634    -0.46904032    -2.18678060
