%nproc=8
%mem=4000MB
#opt=(noeigen,calcfc,ts,recalc=5,maxcyc=200) freq B3LYP/SVP em=GD3BJ

ts-5156.gjf

1 1
O  3.39745286311996  -0.18140948317378  -0.53234356279306
H  3.35342145310678  0.49310559964877  -1.30368802568883
Cl  -1.20575541745837  0.49500072523157  2.80800938260922
C  -4.49675432706712  -0.57698912361581  -1.99839684123738
C  -4.56076565611174  -0.41313149308544  -0.58564887540679
C  -3.47363082375110  -0.36845410415585  0.20771173483225
C  -2.28942407253529  0.07462861081390  -0.46795377639058
C  -2.43896736049585  0.45578866551505  -1.83980899727257
C  -3.43671616434321  -0.04642478339121  -2.70561183283008
H  -5.40198326396513  -0.96003082304500  -0.13871929830820
H  -3.72832712452674  -0.37728046589060  1.28792230352282
C  1.64005126429989  -0.99266844399482  1.90744653732936
C  2.62116262856358  -1.30184949560840  -0.35337141565407
C  2.12173999947077  -1.06703063706257  3.14561322937098
C  2.64884710142430  -1.69284845868075  1.09581393332169
C  3.26069144409639  -1.87902498940567  3.28300590524501
C  3.70987844573673  -2.00537267110891  1.88428124866151
H  3.70137372120606  -2.29440084433908  4.15058089246573
Cl  -5.58653175750062  -1.29643406782342  -3.01677317834732
Cl  5.47098903467735  -2.42562674445851  1.90780670035550
N  -1.04498367110894  0.18892248100387  0.03573706796147
C  -0.65305857865423  0.05790666021833  1.25566022360453
O  1.96192485253414  -1.74908311415164  -1.28378357028480
N  0.53141677563305  -0.67566575597566  1.10505274032510
H  0.25612721093148  -1.41691550120547  0.48334573162007
H  1.56759106401478  -0.61814751555183  3.95027352248129
H  -1.62816052959065  0.92874495083461  -2.41190985673403
Cl  -3.47475357354203  0.77719264643343  -4.23404026753852

