%nproc=8
%mem=4000MB
#opt=(noeigen,calcfc,ts,recalc=5,maxcyc=200) freq B3LYP/SVP em=GD3BJ

ts-2652.gjf

0 2
O  -7.04677016087600  0.98799236328711  -3.16521078224455
C  1.40388936184776  0.92180671268139  2.59671466265903
C  1.47908665743201  1.93640861503578  1.64958889916463
C  0.76752423060406  1.75160377777955  0.39018201257125
C  -0.07960291237177  0.70339105336008  0.32151943767565
C  -0.02682426957451  -0.26429336644837  1.30909627854164
C  0.85150464512146  -0.31836880039253  2.36215394824066
H  1.85486806159963  2.91177563330129  2.00579032739218
H  0.97762580522732  2.47589072483457  -0.38892297274518
C  -3.13594425155588  0.22305728424102  -2.91001796712218
C  -4.03552891092734  -0.85260982189261  -3.05225768904731
C  -3.58142935421809  1.53117500601751  -2.80991550553302
C  -5.36858071739797  -0.56117387113284  -3.21507988339398
H  -3.60733524203495  -1.85993220405107  -3.23846470467111
C  -4.89543784269039  1.90789931589667  -2.88481324241090
C  -5.80573631048227  0.84090639179554  -3.16808614332278
H  -6.11657077255370  -1.31265668662894  -3.57236720588251
H  -5.16384933365087  2.92902361614846  -2.90519385712433
Cl  1.57865171757771  1.46488814678542  4.11940078893315
N  -0.85756995730495  0.55436434015940  -0.81514126604857
C  -1.31242119607542  -0.41850626547473  -1.60640888524685
O  -1.14066596124581  -1.61035224314657  -1.35077677554577
N  -1.83213494585784  0.31076840585875  -2.71670931144915
H  -2.90617222947378  2.40059124435661  -2.77339251176360
H  -0.76423070642890  -1.01394425017758  1.03131454277575
Cl  0.57831781799134  -1.86813021172939  3.23244943345333

