70
 energy: -143.067360308146 gnorm: 0.080436417069 xtb: 6.6.1 (8d0f1dd)
O    -2.55347512    -2.12769410    -3.33480062
H    -1.75291196    -1.60005405    -3.32908860
H    -2.42500757    -2.94703321    -2.85363725
O     3.08178464     0.90246189    -4.38698593
H     3.04416736     1.77534700    -3.99202351
H     3.85203893     0.50263681    -3.97932639
O     0.30873294     2.63911381     5.41034842
H     0.67152125     1.91086888     4.90301956
H    -0.47361186     2.99332225     4.98395499
O    -0.15773279    -0.17196916     3.98246433
H    -0.86935638    -0.02458053     4.60793010
H    -0.12865293    -1.12012063     3.84281616
O    -5.08404457    -3.85963066    -0.52567060
H    -5.79030131    -3.78218934     0.11817989
H    -5.50208432    -3.42383072    -1.27042511
O     0.66856418    -1.29873368    -3.34227154
H     0.90689178    -1.26202025    -2.41426828
H     0.78240057    -0.39634299    -3.64570485
O    -0.86111973    -6.03853147    -2.22628492
H    -1.58557661    -5.45757235    -1.98756715
H    -0.20598083    -5.92178116    -1.53599441
O    -0.63772922    -1.83777902    -0.19579026
H    -1.55587923    -1.83387352    -0.47205731
H    -0.74606851    -1.73636196     0.75147617
O     1.92022297     3.45009748    -2.59005646
H     1.28278281     2.75549921    -2.76481884
H     1.59258170     4.31413635    -2.84584121
O     3.44559134    -2.13566804    -3.61825864
H     3.25234326    -1.90258139    -2.70849816
H     2.70391903    -2.61564774    -3.99092468
O    -3.44631006    -1.61919574    -0.68434126
Cl    -4.38712740    -0.20052091    -0.74253647
H    -3.96196820    -2.41729604    -0.85083151
O    -0.63963753     4.77245109     3.16874942
Cl     0.34120476     4.63368236     1.78316063
H    -0.72695252     5.72163089     3.31714377
O    -4.55568499    -1.69362431     2.42434171
Cl    -2.99878594    -1.35902529     3.02871962
H    -4.56759107    -1.10836797     1.65758269
O     4.00866343     3.21379645     2.01369088
Cl     4.60770820     2.99198453     3.59264803
H     3.25072275     2.68300070     1.74098249
C     5.38845841    -0.03981384     0.63758527
C     4.70189219    -0.51405123     1.74864262
C     3.35422769    -0.27313764     1.93692455
C     2.59361586     0.37854234     0.96036229
C     3.28216628     0.84889787    -0.15747475
C     4.64798642     0.64744023    -0.31980735
H     5.23513980    -1.02962453     2.53646629
H     2.76912048    -0.61920976     2.78183827
C    -2.05618652     2.05621024     0.66258515
C    -2.11875725     2.85749827    -0.48017462
C    -3.24087311     1.78729230     1.35400255
C    -3.32018271     3.42289166    -0.88831277
H    -1.24168965     3.08447473    -1.06464031
C    -4.46436541     2.22740694     0.87606108
C    -4.48052659     3.09892721    -0.20295411
H    -3.19849832     4.15958683    -1.67177199
H    -5.38930744     1.88176250     1.31855765
Cl     7.08462329    -0.34848708     0.45605231
Cl    -6.02107199     3.68806718    -0.77062823
N     1.23787270     0.60727983     1.24174234
H     1.05228598     0.47374927     2.22331350
C     0.34315299     1.37486539     0.51297397
O     0.51879117     1.65562444    -0.64873164
N    -0.82876666     1.62480710     1.20027810
H    -0.98241250     1.17425584     2.08867249
H    -3.13446127     1.20583793     2.26395386
H     2.74309813     1.38018448    -0.92500659
Cl     5.38151304     1.56910275    -1.59174537
