70
 energy: -143.143394876511 gnorm: 0.103883093585 xtb: 6.6.1 (8d0f1dd)
O     0.03678289    -0.84789057     1.22252049
H     0.09301026    -0.59174864     0.30025816
H     0.86963851    -1.13768560     1.59896312
O    -1.44922159     1.57766136     2.47890770
H    -2.22161556     1.77932210     3.01001908
H    -1.78972932     0.77081175     2.08854087
O    -1.57200783    -2.65057326    -0.21082286
H    -0.95214923    -3.03264601    -0.83462920
H    -1.00679935    -2.15986996     0.38841667
O     0.09823172    -0.41731197    -1.46590134
H     0.05167096    -1.31144378    -1.80897476
H    -0.78760285    -0.07052722    -1.58580096
O    -2.06431910    -1.68544093     2.88790172
H    -2.33535892    -2.45333909     2.38173078
H    -1.33366845    -1.38719641     2.34334875
O     0.35533331    -1.95228765    -4.13252166
H     0.64883000    -1.06985756    -3.89903760
H     0.22842872    -1.94867697    -5.08290140
O    -0.23417756    -3.85766788    -2.29821705
H     0.49830032    -3.42971009    -2.74505676
H    -0.67182700    -4.35142196    -2.99392423
O     0.86011673     0.25016680     3.93153983
H     0.58522254    -0.66801788     3.90492656
H     0.22743667     0.67908064     3.35267424
O     0.68744241     0.69005178    -3.88944166
H     1.05434341     0.88129192    -3.02448533
H    -0.25887776     0.76559475    -3.75487121
O    -1.95174337     0.68519687    -2.76588174
H    -2.68924623     0.07428924    -2.81299579
H    -2.35158765     1.46995200    -2.38690650
O    -2.80776928    -0.15000071     0.18956722
Cl    -4.16800577    -0.11373614    -0.83493452
H    -2.50229116    -1.05524565     0.05614635
O     0.47867797     3.34875321     3.72180929
Cl     0.60434673     4.94262159     4.30913851
H     0.23213771     2.82414281     4.49290521
O     2.35677609    -3.25432437     1.50358953
Cl     2.61135831    -2.50684710    -0.00559218
H     3.02747720    -2.95267482     2.12789210
O    -3.77605874     0.48970571     3.44844205
Cl    -3.76045312     1.43135717     4.86767065
H    -3.19795223    -0.26934124     3.59066955
C     5.17300838    -0.52384107     1.27643090
C     4.60644886     0.06234867     2.40164849
C     3.45326081     0.80842663     2.24928687
C     2.81890512     1.02255336     1.02102240
C     3.50851190     0.55052398    -0.09545708
C     4.65951070    -0.22054070     0.01883534
H     4.93296016    -0.17580504     3.40539555
H     2.93640967     1.13033352     3.14663653
C    -1.29986601     3.12044966    -0.72019378
C    -0.92382816     3.91912204    -1.80305827
C    -2.67047393     3.03881444    -0.45822655
C    -1.76590013     4.69724827    -2.58734390
H     0.12336468     3.93262067    -2.05912658
C    -3.49023963     3.90980679    -1.15709628
C    -3.07812162     4.78630559    -2.15006716
H    -1.40604708     5.33103641    -3.38743990
H    -4.54468401     3.93140509    -0.91528715
Cl     6.59660483    -1.51008739     1.35324257
Cl    -4.21636232     5.94533599    -2.78542265
N     1.54043322     1.60134948     1.01471402
H     1.31897004     1.98683403     1.91920863
C     0.92251494     2.13040746    -0.10737731
O     1.48789870     2.17699398    -1.17386936
N    -0.38803461     2.48672953     0.14510629
H    -0.75090138     2.37842139     1.07915401
H    -3.19683396     2.39383317     0.23773922
H     3.00015305     0.74682186    -1.02551272
Cl     5.29424875    -0.88508676    -1.45114275
