%nproc=8
%mem=4000MB
#opt=(noeigen,calcfc,ts,recalc=5,maxcyc=200) freq B3LYP/SVP em=GD3BJ

ts-2901.gjf

0 2
O  -1.95081157306693  6.15323030905130  -2.31243252716882
H  -6.04287078825196  -2.14007202849857  -1.93674466367621
Cl  -4.82567975781402  -2.08942651978234  -2.12994391020586
C  3.00241230953313  -0.33526688118757  1.36118516107394
C  2.55037695304347  0.22143856316132  0.17459166989904
C  1.19689285142093  0.41918689121647  -0.03328057452369
C  0.22672758660546  -0.29073469324832  0.75326037207142
C  0.67751093410217  -0.91028969444092  1.94737875431823
C  2.02369000100471  -0.81154305989974  2.20338106958907
H  3.27037536866145  0.70620076007156  -0.50556956807744
H  0.72412914381104  0.91907341481361  -0.89563532722846
C  -2.51462222748253  2.34593803613970  -1.07393231070149
C  -3.34125331036829  3.41029860691930  -0.69587790937512
C  -1.38820798377261  2.66433533344386  -1.87731301706918
C  -3.40661102208952  4.54680976152052  -1.40189999693625
H  -4.20477738802233  3.19817251951588  -0.05655952860313
C  -1.38933117284424  3.80812886581805  -2.50346612599663
C  -2.24679195773915  4.99119370361677  -2.19211954568938
H  -3.97210400506343  5.40488392811601  -1.06429544750038
H  -0.59222937699019  3.95251883849733  -3.15085783106862
Cl  4.63061287045948  -0.28359096482849  1.90318978488139
N  -1.01374167656404  -0.28247266257596  0.28883651361850
C  -1.79607799360787  -0.19985119357918  -0.73691542027575
O  -1.87021002601565  -0.78664153127624  -1.78323645569219
N  -2.52444966206210  1.04713822366259  -0.88582037574784
H  -0.82988748867657  1.80541263120418  -2.13025972513753
H  -0.03359838599274  -1.23080978667022  2.69922308122219
Cl  2.69172527006789  -1.19639171620361  3.76599824047563

