70
 energy: -143.137433768086 gnorm: 0.102563364195 xtb: 6.6.1 (8d0f1dd)
O    -0.68193918    -2.18841765     1.46020331
H    -1.25639830    -1.78925485     0.80445655
H    -0.09845620    -2.76624313     0.96522450
O    -2.15207911     0.60295106    -5.12773970
H    -1.49049531    -0.08815612    -5.06436349
H    -1.68054017     1.36597823    -4.78894973
O    -0.78307373     0.17430679     3.17281206
H    -1.36198634    -0.55169572     3.41180821
H    -0.53201228     0.54192931     4.02202357
O     0.69371116     1.19834036     6.05672291
H     1.34387097     1.35570864     5.36979756
H     1.01712665     0.52964777     6.66301583
O     0.93433305    -1.48074681    -2.66413591
H     0.44429820    -2.29765302    -2.77308218
H     0.92531378    -1.01800972    -3.50385679
O    -0.39430085    -4.00173176    -2.49321221
H    -0.93555168    -3.77760098    -3.25225827
H    -0.98431378    -3.80620544    -1.76314807
O    -1.24613027    -0.88942875    -1.21640878
H    -1.69362945    -0.04298523    -1.26754867
H    -0.50217652    -0.92151508    -1.82043020
O    -1.34819534    -2.25439423    -5.02797173
H    -1.46434277    -1.83822508    -5.88392219
H    -2.26261602    -2.38848363    -4.77264574
O     0.27480102     1.99675203    -4.01595458
H     0.83713968     2.77178756    -4.06528771
H     0.36144781     1.83443118    -3.07495400
O    -3.21611627    -2.43094905    -2.92747408
H    -2.51013890    -2.09264638    -2.37386267
H    -3.92485202    -1.79728065    -2.80298997
O    -3.24616975     0.62664258    -2.28445085
Cl    -4.14950198     1.98636913    -1.79834713
H    -3.03257021     0.63590836    -3.22512921
O     1.84074525     2.31116794     3.10008200
Cl     2.72887517     3.28308623     4.18071363
H     0.92344661     2.53428376     3.29849981
O     1.34958047    -2.51998391     3.38118413
Cl     1.05892791    -3.56034129     4.69812811
H     0.51219751    -2.18587261     3.03804342
O    -0.80346214     2.75663523     4.06169065
Cl    -1.65004154     4.11931967     3.48936620
H    -0.78575630     2.76112225     5.02618764
C     4.92151701    -1.15411961    -0.31286554
C     4.25544352    -1.67037863     0.79191733
C     3.15105365    -0.97929154     1.25279753
C     2.56673521     0.03128045     0.48194926
C     3.20508651     0.53546715    -0.65083441
C     4.36170827    -0.11985334    -1.05726106
H     4.67239761    -2.55400175     1.25688438
H     2.67059329    -1.32160120     2.16273018
C    -1.69087093     2.48465402     0.61788341
C    -1.30228948     3.62855405    -0.08381072
C    -2.97364201     2.41548535     1.16885637
C    -2.20779294     4.67824812    -0.17255412
H    -0.42481479     3.59909352    -0.70953932
C    -3.90121550     3.43300943     1.01616548
C    -3.43865847     4.61738235     0.46174296
H    -1.97026606     5.55269106    -0.76438663
H    -4.92278359     3.41046461     1.37208882
Cl     6.46902564    -1.77098272    -0.79235008
Cl    -4.52684970     5.97472572     0.33494103
N     1.35294088     0.57932213     0.92454231
H     1.21992029     0.41756872     1.91039022
C     0.46603075     1.33164221     0.17073921
O     0.66890200     1.80510951    -0.92192098
N    -0.74464794     1.46269268     0.82291734
H    -0.93163465     0.76793402     1.52874624
H    -3.29477785     1.47194786     1.59784684
H     2.71392149     1.22659050    -1.31646974
Cl     5.13366589     0.49869765    -2.48092721
