%nproc=8
%mem=4000MB
#opt=(noeigen,calcfc,ts,recalc=5,maxcyc=200) freq B3LYP/SVP em=GD3BJ

ts-4955.gjf

0 2
O  4.28337437504721  -0.34419543295427  -1.08888314042296
H  4.75622775994364  -0.82363227911816  -1.90525698067753
Cl  4.72699535232710  3.30136864890872  1.43318631851553
C  -2.76794341963967  -1.30510972024747  -4.26119998926324
C  -2.49413084954237  -1.33305101140560  -2.89121080665368
C  -1.21430248659665  -1.50838798884532  -2.42669269554095
C  -0.08018544760366  -1.46669108738236  -3.23435701625252
C  -0.36935057080534  -1.74493850719056  -4.62352913865783
C  -1.68394918521012  -1.52116420747465  -5.07749765765971
H  -3.31311501107610  -1.38413990538776  -2.16531562584968
H  -1.19685750347515  -1.49401383180033  -1.35596275306378
C  2.44641082759336  0.14070376694221  0.10924576004543
C  3.41378881840209  -1.03662537175534  -0.33674845390446
C  2.25871949484320  0.67063234524322  1.38780001789652
C  3.88840425632161  -1.76166375888624  0.96444129137667
C  3.00239657210842  0.07320265929120  2.40223769645920
C  3.90898020301692  -0.98408707147297  2.11135793994243
H  4.40896875914795  -2.71997377711089  0.90297010378737
H  3.03669078219252  0.32015800687008  3.44165930713421
Cl  -4.37940659845944  -0.81041651162834  -4.84924464328078
Cl  4.74613982316114  -1.67488077812082  3.47469612504023
N  1.19507180039686  -1.54344967330623  -2.67811963370503
C  1.82742946757060  -0.84833735483649  -1.75842367727638
O  2.71162041539875  -1.85953976864218  -1.05447677061390
N  1.61398573590036  0.23849060606811  -0.96649694440294
H  1.65452187692927  1.54630596325198  1.49633241422057
H  0.47156959105594  -1.90124427242909  -5.28662252723217
Cl  -1.77834162694348  -1.59226137542780  -6.82398403275133

