70
 energy: -143.124577395299 gnorm: 0.096018132073 xtb: 6.6.1 (8d0f1dd)
O    -0.37580652    -3.01662683    -1.30184404
H    -1.29724023    -3.12012660    -1.05774214
H    -0.48479216    -2.73808573    -2.21281915
O    -0.23057682     2.35259505    -4.31755394
H     0.65580968     2.17021771    -4.63440767
H    -0.15302293     3.16289129    -3.81085533
O    -1.86427690     4.42029696     2.77165818
H    -2.67432543     4.88650671     2.98568732
H    -1.92245456     4.23980590     1.83177697
O    -0.27628319     1.82262860     3.23401246
H    -0.22627360     1.72969414     2.28101655
H    -0.75273693     2.63961118     3.39171388
O    -0.03103400     0.14068973    -2.52936493
H    -0.18001998     0.21122184    -1.58481870
H    -0.12181338     0.94953291    -3.03618831
O     1.82670293    -1.98692877    -3.24192892
H     1.22871421    -1.31171433    -2.91660920
H     1.99450327    -2.61663873    -2.53861684
O    -2.56154601    -1.28164971    -2.83852974
H    -2.99626183    -0.87425940    -3.58979050
H    -1.88791873    -0.62318178    -2.65968660
O    -4.65387370    -0.71071203    -1.21964657
H    -4.61478124     0.18090399    -1.57011885
H    -3.83442841    -1.08265361    -1.55056257
O     0.47312171     3.83897483    -1.92375568
H     1.04775769     4.52649587    -1.58251248
H     0.33697840     3.29586697    -1.14540059
O     2.16613326     0.68297963    -4.40087783
H     1.47568394     0.03495709    -4.25026289
H     2.98173952     0.19874251    -4.54101758
O    -3.06393795     1.39755640    -4.60590646
Cl    -3.23446216     2.07512129    -3.05252643
H    -2.18659947     1.71233586    -4.85445724
O     1.08493380     3.43814495     1.25191236
Cl     2.74263871     3.20602437     0.93679471
H     0.93475779     3.97925185     2.03628319
O    -0.51299005    -0.66665320     3.92770353
Cl    -0.59184835    -1.32201874     5.49787587
H    -0.07003355     0.18924122     3.88503725
O     2.94441696     3.77678932     3.71865546
Cl     3.34525108     5.02336311     4.80794267
H     3.25970149     2.95372564     4.11076503
C     4.87261170    -1.19095160    -0.28719122
C     4.45986546    -2.25276224     0.50837236
C     3.18273926    -2.23022515     1.03575247
C     2.26586536    -1.21355447     0.74832601
C     2.68449913    -0.20797058    -0.12256001
C     4.00672502    -0.13215849    -0.54490221
H     4.99264391    -3.15861582     0.76607650
H     2.90148237    -3.01590637     1.72828054
C    -2.53541841    -0.16428573     1.45391164
C    -2.73003973     1.00238321     0.71035019
C    -3.55457020    -0.54958431     2.32954386
C    -3.93201788     1.69874003     0.70806136
H    -1.89292733     1.39619459     0.15670639
C    -4.69155698     0.22667627     2.48363127
C    -4.88725299     1.30334262     1.63123748
H    -4.03896241     2.59088490     0.10475745
H    -5.45319206    -0.07313601     3.19131457
Cl     6.46932658    -1.18473146    -0.96222574
Cl    -6.44064930     2.09647110     1.60827961
N     0.92147188    -1.36934028     1.11963729
H     0.69976589    -2.15200436     1.71464835
C    -0.13171550    -0.49474945     0.90353197
O    -0.06401770     0.42086826     0.11848703
N    -1.32189700    -0.87683986     1.49151870
H    -1.28622753    -1.57503980     2.21753013
H    -3.50641880    -1.38302152     3.02271622
H     1.95681647     0.53663084    -0.40186580
Cl     4.58297083     1.24274549    -1.42973511
