70
 energy: -143.142569974956 gnorm: 0.114227832391 xtb: 6.6.1 (8d0f1dd)
O     0.21344708    -0.78167664     1.44331947
H     0.16368324    -0.51326041     0.52418166
H     1.10004407    -1.14584573     1.41752533
O    -1.66994153     1.98334807     2.90076147
H    -1.47031339     2.70448063     3.50030733
H    -2.44155906     1.58313921     3.30545560
O    -2.12607511    -2.73596759    -0.10035382
H    -1.68891878    -3.22414758    -0.80029185
H    -1.85581011    -3.00912588     0.77809922
O     0.45837957    -1.24568714    -1.49493722
H    -0.38608784    -1.39008291    -1.92547598
H     0.94312967    -0.65626716    -2.07540246
O    -2.50941323    -1.03941059     2.09288090
H    -2.60884742    -1.22719063     1.15789925
H    -1.66880246    -0.63135376     2.30782570
O    -0.11325647    -2.47384335    -4.50819097
H     0.53809169    -1.77792722    -4.40434350
H    -0.29541695    -2.55759147    -5.44581737
O    -0.62073841    -3.90252401    -1.94249598
H    -0.88233649    -3.64190132    -2.82735738
H     0.10823505    -3.34427375    -1.66628424
O     1.02921653     0.70761985     4.18339819
H     1.15478159     0.10365260     4.91742486
H     0.67371377     0.23411421     3.42924521
O     0.88270556     0.32898336    -3.54684119
H     1.15039656     1.08699930    -3.02425918
H    -0.07600442     0.32011474    -3.53525010
O    -1.91733294     1.01747891    -3.66194723
H    -2.63390578     0.43806466    -3.39710609
H    -1.85867874     1.76106292    -3.05946836
O    -2.32343629    -0.18432886    -1.20649062
Cl    -3.87333921    -0.01705636    -0.52020856
H    -1.88272343    -0.92952031    -0.78099293
O     0.34974830     3.31248940     3.69748750
Cl     0.30169917     4.88774810     4.34356488
H     0.77126401     2.65518374     4.26393332
O     2.52128330    -2.33765307     1.72033575
Cl     2.41339039    -2.97517245     0.14455278
H     2.93851770    -3.04027676     2.23299698
O    -4.38616357     0.70372640     3.39823291
Cl    -3.98616079     0.74211079     5.05343236
H    -3.81179624     0.09454118     2.91908407
C     5.28502435    -0.43122772     1.05516359
C     4.76447633     0.11131217     2.22366805
C     3.61450218     0.87760537     2.21710418
C     3.01274082     1.07813876     0.97028404
C     3.50817644     0.54249290    -0.21821185
C     4.65596194    -0.24033618    -0.17164451
H     5.28492914     0.09193050     3.17213424
H     3.08161397     1.20118267     3.10441663
C    -1.12745031     3.36194417    -0.45940338
C    -0.83620735     3.81670947    -1.74790774
C    -2.37711080     3.68446448     0.07742659
C    -1.80539307     4.46285201    -2.50477522
H     0.10851500     3.58317485    -2.21194144
C    -3.36445316     4.37239642    -0.60884376
C    -2.99248631     4.80132074    -1.87444524
H    -1.70378238     4.80603016    -3.52616605
H    -4.35766454     4.51578303    -0.20416800
Cl     6.68659809    -1.44240572     1.19050963
Cl    -4.19602487     5.68784013    -2.77344367
N     1.76746302     1.72459658     1.00045749
H     1.26412313     1.71761984     1.87358692
C     1.04893172     2.17723860    -0.09482427
O     1.40685046     2.11591963    -1.24693904
N    -0.10234945     2.81013186     0.33208459
H    -0.48491452     2.61697597     1.24432513
H    -2.63255894     3.28065964     1.05165036
H     2.99275627     0.76333136    -1.13882977
Cl     5.45828785    -0.78198866    -1.60978044
