70
 energy: -143.107789545559 gnorm: 0.098135001384 xtb: 6.6.1 (8d0f1dd)
O     2.53997259    -2.76646104    -4.67713205
H     1.60475415    -2.97776770    -4.68448029
H     2.71355144    -2.08883833    -4.02136034
O    -0.60703132     0.60819163    -5.60190672
H    -1.03156703     1.33498866    -6.06111723
H     0.06280502     0.94687602    -5.00529106
O    -1.19400068     2.19395951     4.22551295
H    -1.40595672     2.43520865     5.12895753
H    -1.96869792     1.81378276     3.80760363
O     0.95700859    -0.01728483     4.57576419
H     1.39800977    -0.45979080     5.30311926
H     1.56213214     0.71447500     4.44275478
O    -4.92260201    -0.19460461    -1.86080193
H    -4.23316561     0.28144024    -2.32706145
H    -4.58155561    -0.82792700    -1.22682386
O    -1.62718982    -1.79349764    -4.04061267
H    -1.35211255    -1.99863355    -4.93592811
H    -2.58305242    -1.84894335    -3.98970188
O     0.76319849    -5.48115836    -2.38339305
H     0.59742454    -4.53909340    -2.31728665
H     1.54337127    -5.60778615    -2.92619544
O    -2.25320792    -1.70061911    -0.29289405
H    -1.58884232    -1.07964847    -0.59678876
H    -2.00127865    -2.56661610    -0.61834352
O     2.15460481     1.14660787    -4.38688598
H     2.50557833     1.88028142    -3.87906780
H     2.74499131     0.41110895    -4.21419283
O     0.60451145    -2.14265876    -2.66427356
H     0.85320046    -1.41540954    -2.09103654
H    -0.22615429    -2.01679536    -3.12632455
O    -2.49368072     0.71829280    -3.20652362
Cl    -2.62754473     2.41446400    -3.12749261
H    -1.74361594     0.46005062    -3.75543182
O     0.42341786     3.86598667     3.01838748
Cl     0.26138685     3.39331791     1.39004635
H    -0.31137941     3.51016375     3.53224557
O    -1.51234459    -0.74411073     4.16849204
Cl    -2.26639021    -0.25183134     5.61425828
H    -0.58512237    -0.51006238     4.29524556
O     2.38015372     2.31927902     4.16337229
Cl     3.05129189     3.64134326     5.00175200
H     1.84473522     2.64645608     3.43065796
C     5.21222299    -0.32053362     0.17705332
C     4.74468723    -1.20697057     1.13953049
C     3.38737799    -1.19670409     1.39894357
C     2.47985172    -0.42780560     0.66268137
C     2.95594828     0.40481537    -0.34972658
C     4.33212197     0.50170233    -0.52049055
H     5.48465303    -1.75512311     1.70769797
H     3.06640907    -1.87443566     2.18230450
C    -2.21322087     1.00978404     1.03739375
C    -2.22078161     1.93914102    -0.00573415
C    -3.25653736     0.97443517     1.96696260
C    -3.23902533     2.88184287    -0.07025110
H    -1.37683343     1.95671423    -0.67641188
C    -4.32157927     1.84916924     1.82700435
C    -4.26836936     2.83924366     0.85695086
H    -3.09682480     3.65746520    -0.81155008
H    -5.17538557     1.79805637     2.48972094
Cl     6.88388660    -0.18851985    -0.26263019
Cl    -5.57104450     3.98937341     0.70575935
N     1.15136594    -0.48231151     1.11178003
H     0.96668403    -0.71715257     2.07432717
C     0.07431545     0.18066928     0.54500590
O     0.09485143     0.44875846    -0.63267858
N    -1.06849035     0.24023539     1.31876307
H    -0.97728591    -0.15140412     2.24296449
H    -3.16361668     0.17614224     2.69601551
H     2.28933704     1.01937646    -0.93274378
Cl     4.97345266     1.65321868    -1.64656970
