%nproc=8
%mem=4000MB
#opt=(noeigen,calcfc,ts,recalc=5,maxcyc=200) freq B3LYP/SVP em=GD3BJ

ts-3611.gjf

0 2
O  -1.15083177877013  -2.57046378613654  -2.83929155150701
Cl  -0.10374863133563  -5.22736054392611  -4.67804589603665
H  -1.75164321748214  -2.76505010714723  -3.60653641638293
C  1.65607197544746  -5.06319804110706  -2.86405314345698
C  0.29336138259427  -4.54321588170579  -3.08239882333443
C  0.11665144230524  -2.93718908142210  -3.05013724354253
C  1.07962690835913  -2.26915934592610  -1.87535872390430
C  2.34634462441226  -2.97093892859093  -1.76059434977362
C  2.61590397184274  -4.13172005198466  -2.40432249156027
H  -0.46273087459740  -4.97184455548743  -2.34545928953270
H  0.48469415832131  -2.46752059632259  -3.95846854065992
Cl  1.82056525751809  -6.94276162157085  -2.83607781064842
N  0.15114854980727  -1.70486277466198  -1.28004875545060
H  0.16090976359243  -1.15580240048585  -0.44729311558893
H  3.15345181796945  -2.38066088513377  -1.28527725329731
Cl  4.35793622425304  -4.68104767108688  -2.64133140537341

