70
 energy: -143.141976190768 gnorm: 0.109542161893 xtb: 6.6.1 (8d0f1dd)
O    -0.78542083    -1.05635628    -0.24592479
H    -0.21848212    -0.69011246    -0.92694167
H    -1.61653292    -0.60384290    -0.09157772
O    -4.44194834    -0.83176518    -2.32162296
H    -4.83346161    -0.39091730    -3.07773757
H    -4.74064546    -1.74078101    -2.25991136
O     0.43051816    -1.10619971     2.30119939
H     0.68685723    -1.96565604     2.64026237
H     0.14911611    -1.26756183     1.39891700
O    -3.18904347     0.16363431    -0.09205922
H    -3.97384983    -0.08343385    -0.58437545
H    -3.12262926     1.11235581     0.02982245
O    -1.27292823    -1.13525620    -2.87059321
H    -1.61817276    -0.26492225    -2.66404004
H    -2.08685336    -1.62276208    -2.73202186
O     2.21676621    -3.09957466    -0.12119093
H     2.03338442    -2.28799601    -0.59768772
H     3.04816306    -3.51228713    -0.36158050
O    -0.69869600    -3.79251323    -1.43088410
H    -0.68469200    -2.86092720    -1.20441381
H    -0.73893466    -4.24173903    -0.58476613
O    -2.33371676    -0.34266647     2.81530714
H    -2.73726963    -0.66997477     2.00948301
H    -1.38026311    -0.43482076     2.77323294
O     1.17226036    -0.45466774    -2.13760220
H     0.53520509    -0.95327480    -2.65227704
H     0.97485908     0.45524653    -2.36657069
O    -3.56755209    -3.58018529    -2.43378348
H    -2.91481651    -3.77992501    -1.76044951
H    -3.15227323    -3.81571982    -3.26529130
O    -1.54567855     1.89067262    -2.61654898
Cl    -3.17080006     2.40030729    -2.63691554
H    -0.99891506     2.21146732    -1.88941292
O     1.32131654     2.17046789     3.19439039
Cl     2.93673733     2.33084259     3.71000681
H     0.86519321     1.75364021     3.93519623
O     1.07641564    -3.66016824     2.59726400
Cl     0.82964063    -5.28170486     3.05648605
H     1.59103205    -3.70332155     1.78246718
O    -1.38217986     1.50498469     4.15365244
Cl    -2.19016656     2.67168886     5.09552275
H    -1.65878791     0.64618035     4.49501907
C     5.65676443     0.57009407    -0.47266061
C     5.13568231    -0.25764647     0.51427479
C     3.82031112    -0.09775975     0.90660597
C     2.95888469     0.79715385     0.26320486
C     3.44620852     1.55994824    -0.79771722
C     4.79769438     1.46201202    -1.10803310
H     5.73032396    -0.97261987     1.06749196
H     3.41259505    -0.81472404     1.61068359
C    -1.40595360     2.97849610     0.73648956
C    -1.36088143     4.12772301    -0.05668347
C    -2.60346342     2.70458142     1.40342144
C    -2.49778966     4.88703998    -0.30274639
H    -0.40742339     4.29644392    -0.53083222
C    -3.75410257     3.43981655     1.16992370
C    -3.69231962     4.51163674     0.29159184
H    -2.50811834     5.73263961    -0.97816462
H    -4.69583741     3.16822582     1.62836127
Cl     7.22454096     0.31850822    -1.16835436
Cl    -5.18889281     5.24146865    -0.22824853
N     1.58529149     0.89672705     0.53313417
H     1.18304623     0.31202710     1.24873143
C     0.68333074     1.84786398     0.08300139
O     0.74142315     2.34721836    -1.01540872
N    -0.35228631     2.07426329     0.96871810
H    -0.51387598     1.50009699     1.78116496
H    -2.72036496     1.91029551     2.13339951
H     2.70829522     2.15411538    -1.31192954
Cl     5.20318657     2.55441241    -2.39161663
