70
 energy: -143.146393120129 gnorm: 0.116107551661 xtb: 6.6.1 (8d0f1dd)
O     0.81762632    -4.99382632     1.29434528
H     1.57123045    -4.55325039     1.69097064
H     0.93417784    -5.92341529     1.49835210
O    -1.30244319     0.93318911    -1.83433419
H    -0.61231233     1.38228404    -1.34303800
H    -2.01595811     0.76720666    -1.21571931
O    -0.43996009     0.47934788     3.98061326
H    -0.98902427    -0.09978968     3.44913717
H     0.45226814     0.13436766     4.04584976
O    -1.90215715    -1.12062532     2.25673934
H    -2.58011583    -0.98775245     1.59186656
H    -1.23516710    -1.76036261     2.00139851
O    -0.13571348    -1.40830269    -2.13017995
H     0.60847744    -1.50168830    -2.72750582
H    -0.53205880    -0.53967307    -2.21810649
O    -2.66885662    -2.22337057    -4.02254476
H    -2.76050738    -1.46077209    -4.59646260
H    -2.02074623    -2.01089871    -3.34863966
O     0.42810533    -2.42003240     0.60380822
H     0.09161274    -2.14727003    -0.25159278
H     0.34198733    -3.37489816     0.61620418
O    -4.74114575    -1.29708749    -2.50386759
H    -4.20361816    -1.95143893    -2.95356356
H    -4.56307268    -0.54748505    -3.07458877
O     1.07670625     0.02107781    -4.75100601
H     1.90907687     0.48952400    -4.66700653
H     0.41313843     0.66478586    -4.49673154
O    -3.56878616     0.16957970    -0.48632608
H    -3.99266369    -0.40268724    -1.12833599
H    -4.29120029     0.62675660    -0.05222311
O    -3.21913330     0.75248019    -4.03874290
Cl    -4.10446197     2.18291990    -3.77191408
H    -2.51806859     0.96140509    -3.40989867
O     1.98406025     2.98982405     3.85400555
Cl     2.49771496     1.62202607     4.72947810
H     1.04695383     3.18120466     3.97967222
O     1.73839330    -1.44715782     3.22491026
Cl     3.20234152    -2.30498673     3.37373561
H     1.48924968    -1.52677184     2.29637636
O    -0.79148672     3.07981867     4.31890252
Cl    -1.75540103     4.07033223     5.31434861
H    -0.89582457     2.17421495     4.63447118
C     5.41198041    -0.21547505    -0.45266474
C     5.48845377     0.34973503     0.81438383
C     4.32562630     0.93946579     1.27235646
C     3.16040599     1.06333608     0.50828265
C     3.14621588     0.43675804    -0.73754810
C     4.24386150    -0.27536851    -1.20707082
H     6.39732500     0.28648402     1.39815382
H     4.31935420     1.37075379     2.26731721
C    -1.41170186     2.78213825     0.65947345
C    -1.54756729     3.57235248    -0.48463301
C    -2.55985774     2.36494512     1.33884460
C    -2.80483873     4.06212034    -0.81488372
H    -0.74148739     3.86373002    -1.13862105
C    -3.80886361     2.85043570     0.98763871
C    -3.92979222     3.73427458    -0.07457014
H    -2.91019167     4.71108947    -1.67457845
H    -4.69413860     2.68442947     1.58723958
Cl     6.81138857    -0.96041659    -1.15404025
Cl    -5.34680183     4.75011526    -0.12721427
N     2.02716306     1.70609803     1.02996521
H     2.15374386     2.08795946     1.95403985
C     0.84121098     2.04309145     0.39690330
O     0.80946932     2.17918651    -0.80297377
N    -0.23367443     2.26908966     1.23463815
H    -0.23744710     2.00717585     2.20789813
H    -2.44046271     1.64354164     2.14055897
H     2.39283517     0.74821224    -1.44279901
Cl     4.00709248    -1.17781347    -2.66819469
