%nproc=8
%mem=4000MB
#opt=(noeigen,calcfc,ts,recalc=5,maxcyc=200) freq B3LYP/SVP em=GD3BJ

ts-2536.gjf

0 2
O  -6.91420764036561  1.63959125026822  -3.04919010851026
C  -0.25808146793618  1.00290470289060  2.73695574504927
C  -1.56003842265324  0.87562614465524  2.14872889781824
C  -1.88338753091693  0.34513739326571  0.87262286346127
C  -0.75645504161545  0.05191340291559  -0.01808355413876
C  0.38445773101354  0.59593208308350  0.48217916290570
C  0.75975551612136  0.98109946274253  1.82695170166264
H  -2.38315899309223  0.90478024868802  2.88000052516523
H  -2.91365706593529  0.07003946368894  0.70707599903289
C  -3.34279352708338  -0.14677588110415  -2.23262952181668
C  -4.38827989927484  -0.90506817136913  -2.76712320933734
C  -3.52672328536982  1.20574307736327  -1.93236331347064
C  -5.56641511045781  -0.33558688148828  -2.86760066276713
H  -4.33670915802621  -1.97808224499909  -2.62620306317802
C  -4.69503429444667  1.81322888115587  -2.31285124477641
C  -5.84558984444136  1.08169506381903  -2.69194618886437
H  -6.46094498662934  -0.90215992490650  -3.12330141189639
H  -4.77959949286695  2.85320744937953  -2.09888101007965
Cl  0.00890864801822  1.29448313462197  4.36630846089472
N  -0.84753736440072  -0.43133418162908  -1.21238710512849
C  -1.16322403464567  -1.52090937099283  -1.83409664548270
O  -0.61253968091741  -2.51793861362145  -2.15350372361362
N  -2.36925863388152  -0.97554551242206  -2.03804460439097
H  -2.75814916523303  1.90653985082298  -1.59942916530855
H  1.20095026619666  0.55279401211947  -0.20590114815577
Cl  2.32383783945059  1.57604260849012  2.16039418250418

