%nproc=8
%mem=4000MB
#opt=(noeigen,calcfc,ts,recalc=5,maxcyc=200) freq B3LYP/SVP em=GD3BJ

ts-5202.gjf

0 1
Cl  1.47690987983991  5.32198951687855  -3.89078266545042
C  0.86286748843569  0.47800059918164  -4.71996670832967
C  0.88373723681647  -0.42298731038426  -3.59375879635585
C  -0.37246269411380  0.56911494216286  -5.36877326258127
C  -0.19160750491528  -1.23110401509946  -3.23933357784388
H  1.82295314767467  -0.77681803781096  -3.19654806541073
C  -1.23743070296954  -0.49636513175619  -5.27906041026081
C  -1.27213759929228  -1.24068783750538  -4.09310939525527
H  -0.11406904550016  -1.90764569868537  -2.37364807072106
H  -2.01849252977756  -0.45216327648946  -6.02976459850695
Cl  -2.66315138469527  -2.07932868450391  -3.79994287648546
N  1.92978951798342  1.08867608443078  -5.04419340631760
H  1.95517318156829  1.53799197759858  -5.93959616917558
H  -0.63524045366335  1.34915443679033  -6.07694989406498

