70
 energy: -143.139661724493 gnorm: 0.122552262596 xtb: 6.6.1 (8d0f1dd)
O    -3.55991433    -1.02335539     2.77899109
H    -4.15528744    -1.43794197     3.40587772
H    -3.48836157    -1.63724554     2.04594418
O    -1.87005794    -0.44706573    -0.66810870
H    -2.52506688    -0.27911576    -1.34788432
H    -1.94662629     0.20938558     0.02654735
O    -0.84778381    -0.29281896     3.13863522
H    -0.29428986    -1.05802552     2.97297899
H    -1.76388084    -0.57582456     3.13510918
O    -2.84169252    -2.66430109     0.92659320
H    -3.37913645    -2.86221004     0.15761657
H    -1.89184632    -2.74565965     0.82406790
O     1.05968374    -2.86836280    -2.73340546
H     0.94500037    -1.93615230    -2.92620195
H     1.96711507    -2.95656641    -3.03026673
O    -0.36430183    -2.67405068    -0.34484885
H    -0.58269068    -1.77088602    -0.58136078
H     0.06827049    -3.08733106    -1.09412848
O    -2.47955853    -2.79847039    -3.55843992
H    -1.86953574    -2.66735914    -4.28646429
H    -2.59971912    -1.93764826    -3.15361244
O    -4.59179745    -3.14112931    -1.54111880
H    -3.94210430    -3.38574054    -2.20248279
H    -4.89511801    -3.82930748    -0.94635502
O     0.75225991    -0.16655707    -3.00365567
H     0.54457819     0.52488864    -2.37269630
H     0.73637219     0.41716157    -3.76415416
O    -3.48457942    -0.23585896    -2.86699758
H    -4.38744623    -0.55493390    -2.81840698
H    -3.55374367     0.57978269    -3.36628037
O    -1.51860648     2.59729913    -2.78441770
Cl    -1.15871222     4.10682224    -3.48654186
H    -0.74364081     2.48278336    -2.22147832
O     2.25792333     5.23714947     3.50469072
Cl     3.59282114     4.41838747     2.83473456
H     1.84409971     4.53238159     4.01717424
O     0.50399581    -2.47850550     2.30850253
Cl     0.97728839    -3.94568024     3.03276507
H     0.66322600    -2.51835022     1.35790047
O     0.51574709     1.78673298     4.06240713
Cl     1.10176821     2.29305950     5.57943500
H    -0.11513737     1.06312837     4.15711319
C     5.15407708     0.01038639    -0.12772365
C     4.94913026     0.37474827     1.19740264
C     3.68760427     0.74514935     1.62289544
C     2.67897940     0.72988828     0.65370310
C     2.85073344     0.35706107    -0.67911192
C     4.11885223    -0.07116238    -1.05447955
H     5.80370844     0.23654451     1.84657962
H     3.51437018     1.01355607     2.65920778
C    -1.90236994     2.52003467     0.95572771
C    -1.95617375     3.49635999    -0.04215580
C    -3.07351961     2.12254597     1.60708657
C    -3.19655068     3.97467755    -0.44507877
H    -1.05182319     3.88011356    -0.48628335
C    -4.26355986     2.77550303     1.33047561
C    -4.34744440     3.64617624     0.25391903
H    -3.30183065     4.73866319    -1.20440563
H    -5.11205800     2.54067476     1.95952064
Cl     6.81368128    -0.21277349    -0.57618994
Cl    -5.85114922     4.49007908    -0.00936735
N     1.42164295     1.07724513     1.17137407
H     1.26689468     1.25565268     2.15115897
C     0.35055635     1.54264325     0.42505491
O     0.42079576     1.79824215    -0.75349078
N    -0.73494989     1.78783642     1.24347408
H    -0.72293500     1.24427033     2.09214339
H    -3.04206991     1.39674986     2.41309834
H     2.04476581     0.10551993    -1.34926725
Cl     4.46272249    -0.38918743    -2.72359983
