70
 energy: -143.124483156508 gnorm: 0.103867182308 xtb: 6.6.1 (8d0f1dd)
O     2.81217130    -3.12713919    -1.32271504
H     3.60004408    -3.32796649    -1.83091078
H     2.65929137    -2.18436891    -1.40727630
O    -1.70768205     0.60093125    -4.97347253
H    -1.30792519    -0.27046032    -4.95898162
H    -1.12708204     1.12622134    -4.42001791
O    -1.47257570     3.74289187     3.15954624
H    -2.21850163     3.54510206     2.59050115
H    -1.41329556     4.65592033     3.44625735
O    -0.07898620     2.04363256     5.03237547
H     0.85945954     1.89863241     5.16516682
H    -0.27688453     2.78813162     4.46150258
O    -2.23515813    -0.80915172    -2.74719677
H    -2.29950038    -0.37467183    -1.89489020
H    -2.64556661    -0.14240539    -3.30068779
O     0.03477216    -2.04269935    -4.20828256
H     0.47663005    -2.88604717    -4.32170234
H    -0.56005791    -2.17372630    -3.46777694
O     0.26480392    -3.33809180    -1.48704617
H     1.16870882    -3.35825106    -1.16784878
H    -0.01598699    -4.23888893    -1.31657745
O    -0.39902300    -2.81408380     1.39080738
H     0.18903619    -3.57129595     1.40323035
H    -0.50593548    -2.63769645     0.45443474
O     0.20376310     1.90975461    -3.12190736
H     1.11810731     1.62715797    -3.06315023
H     0.07105417     2.12757484    -2.19763440
O     1.90890199    -0.61486285    -2.95193191
H     1.14978615    -0.48946679    -2.37978044
H     1.60951832    -1.16312801    -3.67933346
O    -3.13065420     3.14352800    -5.20627978
Cl    -4.61833904     3.20393067    -4.37905095
H    -2.69343385     2.28855873    -5.11434330
O     1.04622008     2.81225626     2.24191481
Cl     1.16853892     3.44881544     0.66679730
H     0.16027243     3.01864085     2.56298997
O    -0.88237183    -0.50055817     4.47289359
Cl    -1.66940314    -1.61298776     5.49477712
H    -0.66258206     0.31736578     4.93471498
O     3.33867559     1.66565850     3.43310357
Cl     3.16710985     2.22060919     5.03427682
H     2.80843919     2.24612584     2.87409096
C     4.93693669    -0.65512061    -0.04814891
C     4.45372393    -1.54321141     0.90501562
C     3.17377384    -1.48461045     1.42268598
C     2.32304675    -0.47392517     0.96261042
C     2.76408687     0.38016607    -0.04778912
C     4.08092322     0.34858821    -0.49202587
H     5.15374752    -2.29413341     1.24694838
H     2.88114351    -2.15095592     2.22664288
C    -2.21316302     1.20599998     1.33946479
C    -2.22796908     2.16440460     0.32304026
C    -3.31503177     1.09352037     2.19216095
C    -3.40835308     2.84389220     0.04980092
H    -1.28166982     2.33361956    -0.16506837
C    -4.42646246     1.90031827     2.01088414
C    -4.52019117     2.66596224     0.85802388
H    -3.48290835     3.51843471    -0.79327033
H    -5.11222997     1.81899731     2.84389127
Cl     6.64054139    -0.71900003    -0.36256724
Cl    -6.06135518     3.40443073     0.50859910
N     1.02132821    -0.40424438     1.48242615
H     0.69137083    -1.05514642     2.17755879
C     0.04670720     0.30991548     0.80352722
O     0.20107045     0.72232979    -0.32133754
N    -1.10146554     0.37339458     1.56898341
H    -1.12109850    -0.17045054     2.41733185
H    -3.23282112     0.31488271     2.94341914
H     2.11995235     1.11108131    -0.50911176
Cl     4.60589497     1.44614608    -1.72698360
