70
 energy: -143.143569417053 gnorm: 0.136297908663 xtb: 6.6.1 (8d0f1dd)
O    -0.75731022    -0.79193352     0.21464273
H    -0.83465541    -0.36264865    -0.63921337
H    -1.17537686    -1.63826997     0.04649526
O    -3.52732614    -0.03246575    -0.93287537
H    -3.15221136    -0.88942221    -1.14324013
H    -3.19535574     0.63461291    -1.53631532
O     1.16852578    -1.58542474     2.69184729
H     1.80575578    -1.48507800     1.98247638
H     0.48518022    -2.13411647     2.30285553
O    -3.02810648    -0.70965920     1.73306137
H    -3.44850617    -0.40931386     2.54077156
H    -3.53337994    -0.28960848     1.03478164
O    -1.68184342    -2.36298988    -3.55929604
H    -1.53121383    -1.41885754    -3.63184966
H    -2.42237267    -2.52996738    -4.14502042
O     0.50162348    -2.55220106    -1.86399116
H     0.32554901    -1.66751162    -2.18904556
H    -0.34432874    -2.91710557    -2.12960174
O    -2.53253082    -3.31440362     1.81842174
H    -2.46358194    -2.35911006     1.86311733
H    -2.71883183    -3.56217980     2.72574609
O    -0.67125038     0.56725960     2.49351662
H    -1.20568754     0.16682858     1.80549765
H     0.01746326    -0.09796752     2.54334535
O    -0.38961590     0.12726732    -2.29228933
H    -0.89285105     0.73176318    -2.84063023
H     0.42847204     0.61296208    -2.17324926
O    -2.43959657    -2.93834824    -0.78732053
H    -3.29141842    -3.28468014    -1.05896752
H    -2.29794257    -3.18042624     0.12956043
O    -0.80670635     2.43691667    -3.59329044
Cl    -2.45644221     2.65093903    -3.22760169
H    -0.24050826     2.72541925    -2.86749956
O     1.02072511     2.63169449     3.27444946
Cl     1.28064773     3.70719335     4.56940393
H     0.56005349     1.88724288     3.67961680
O     2.34142218    -2.13800474     0.28181099
Cl     3.47730391    -3.33910498    -0.12842640
H     1.55441974    -2.22705765    -0.26890025
O    -2.51050811     1.28424261     4.58507669
Cl    -2.08527307     0.55467594     6.06428881
H    -1.72267699     1.21942393     4.03216735
C     5.34115721    -0.25638569     0.08073217
C     4.81527162     0.15709307     1.29860004
C     3.59797682     0.79934869     1.42265634
C     2.81715076     1.07330312     0.29475985
C     3.31647254     0.66519797    -0.94177701
C     4.57016906     0.07128904    -1.03076401
H     5.35260302    -0.01753621     2.22142965
H     3.36598839     1.07719690     2.44489761
C    -1.50828335     3.31134730     0.24358733
C    -1.53390674     4.31574723    -0.72718642
C    -2.57759587     3.10190792     1.11912319
C    -2.72060970     5.03299568    -0.81061479
H    -0.69520722     4.58201747    -1.35012245
C    -3.77369834     3.78372770     0.96575117
C    -3.84178357     4.71431354    -0.06062932
H    -2.65729138     5.88077602    -1.48038675
H    -4.67670660     3.62501579     1.54036206
Cl     6.77213441    -1.21762955    -0.10236064
Cl    -5.32074859     5.63370913    -0.16059985
N     1.51441137     1.48703352     0.61292990
H     1.42094389     1.74013755     1.58398958
C     0.65763824     2.21565829    -0.19692190
O     0.85435117     2.44468467    -1.36657367
N    -0.49493140     2.38216824     0.54611986
H    -0.57828073     1.82640540     1.38279698
H    -2.47280512     2.38324869     1.92533152
H     2.83118672     0.79850996    -1.89502962
Cl     4.93819202    -0.41974236    -2.65212039
