70
 energy: -143.140068543277 gnorm: 0.111435124150 xtb: 6.6.1 (8d0f1dd)
O    -3.16214026    -0.28813286     2.41785268
H    -3.80606736    -0.11069965     1.72994763
H    -3.14955202    -1.24643294     2.44685558
O    -4.43821486    -2.01151566    -2.22162492
H    -4.55958209    -2.27770293    -3.13472575
H    -4.31663942    -1.06279993    -2.28867678
O    -0.60341244    -0.06124044     2.90347083
H    -0.27245352    -0.92034251     2.63561185
H    -1.52027729    -0.20440402     2.66222115
O    -2.74742120    -3.06200594     2.32698237
H    -2.56361815    -3.18780462     1.39438916
H    -1.92333468    -3.25242570     2.77860187
O     1.11291922    -0.73499024    -1.90608167
H     0.22425704    -0.46861263    -1.66387992
H     1.72881027    -0.07275306    -1.58755658
O     1.42296738    -3.06042932    -0.47979535
H     1.29486196    -2.23875607    -0.95705845
H     1.35024292    -3.83830979    -1.03563038
O    -1.08980797    -2.74843729    -2.61181736
H    -1.76381237    -2.06934677    -2.67419989
H    -0.30541681    -2.29227960    -2.92163867
O    -2.21440334    -2.44378265    -0.15816838
H    -3.12456830    -2.44619513    -0.45971787
H    -1.73133342    -2.94802301    -0.81522364
O    -1.17282665    -0.13387076     0.04287140
H    -0.95291394    -0.61385925     0.84323884
H    -2.12788441    -0.16984236    -0.03399562
O    -3.48492558     1.32315254    -2.21852918
H    -3.31996118     1.61800038    -3.11585289
H    -2.63107304     1.24617439    -1.78917095
O    -0.38801352     1.71216027    -3.55474923
Cl     0.97692924     0.97533001    -4.25843571
H    -0.10972914     1.96333540    -2.66589870
O     1.51280988     3.64754590     3.07232557
Cl     0.16646922     4.63799044     2.74437572
H     2.15709979     4.25958670     3.44767031
O    -0.06047735    -2.56173372     1.89617625
Cl     0.35221175    -3.60213212     3.18008539
H     0.50156885    -2.87419197     1.17710738
O     0.72980829     0.39308129     5.43479565
Cl     2.38053663     0.35522702     5.01667624
H     0.21388788     0.31327843     4.62359549
C     4.68515899    -0.29543334    -0.51793171
C     4.14017013    -0.85819755     0.62967723
C     2.93524318    -0.40362725     1.13088172
C     2.35209299     0.73151480     0.55792502
C     2.92545959     1.27708716    -0.59033331
C     4.10362065     0.79865227    -1.15197225
H     4.59430737    -1.75494472     1.03022544
H     2.56557407    -0.74966764     2.08983758
C    -1.83075496     3.30440926     0.88673865
C    -1.70711425     4.32371387    -0.06068340
C    -3.07495645     3.06047178     1.47522339
C    -2.79916470     5.10121451    -0.42480989
H    -0.74510194     4.55221327    -0.49043489
C    -4.19352394     3.75816009     1.04966483
C    -4.03843485     4.73205901     0.07419019
H    -2.77317227     5.87153909    -1.18458592
H    -5.12841759     3.55147634     1.55369531
Cl     6.14472287    -1.05111434    -1.06913786
Cl    -5.32334541     5.83829334    -0.33552966
N     1.16058297     1.27393221     1.06351608
H     0.77298819     0.92707376     1.92677402
C     0.25962456     2.00696309     0.30737195
O     0.29231085     2.28992758    -0.86655183
N    -0.71962915     2.48343142     1.15725050
H    -0.67612871     2.07077049     2.07576382
H    -3.16215535     2.31625235     2.26005320
H     2.54123711     2.16357593    -1.06832473
Cl     4.90687455     1.46202319    -2.53763876
