70
 energy: -143.140843132527 gnorm: 0.108640042180 xtb: 6.6.1 (8d0f1dd)
O    -2.81946111     0.60171508     0.00541723
H    -3.05503680     1.46763734     0.34308683
H    -3.59298861     0.05033744     0.13571147
O    -4.78118400    -0.89302603    -2.79902753
H    -3.99319558    -0.37054802    -2.95849469
H    -4.95006812    -1.24881632    -3.67322973
O    -0.23241124     0.36081739     1.22026583
H     0.21914914    -0.42473982     0.90668695
H    -1.14275144     0.18187290     0.97819570
O    -5.10040800    -0.87905795     0.11668099
H    -4.69119918    -1.69669277     0.40540305
H    -4.99232462    -0.94786625    -0.83354102
O     1.44667570    -0.87216959    -3.61450697
H     0.64367380    -0.54399732    -3.20605857
H     2.05283943    -1.12999407    -2.91777878
O     0.33821347    -3.69900222    -2.59065102
H     0.31360748    -3.23981370    -3.43200613
H    -0.18939710    -4.49200302    -2.70072495
O    -2.18472530    -5.43002021    -2.12170518
H    -2.02677218    -4.80966025    -1.40788323
H    -3.06625632    -5.76006194    -1.93918365
O    -2.21798136    -2.47441915    -0.25690503
H    -1.26887892    -2.58441027    -0.17662618
H    -2.27579542    -1.82629509    -0.96112747
O    -0.49241407     0.18185388    -1.52962948
H     0.06333337     0.95200164    -1.39788807
H    -1.34863352     0.58396044    -1.37298851
O    -2.08249410    -0.76266180    -3.38451413
H    -1.30066433    -0.53161807    -2.87983667
H    -1.75902555    -0.41868685    -4.21901255
O    -0.10683769     2.88188235    -3.51070941
Cl    -1.70493760     2.48583200    -3.07438038
H     0.44218007     2.89922805    -2.71769930
O     1.43427420     3.81147174     3.76813858
Cl     2.56452483     4.46967764     4.85922207
H     1.32460120     2.87878162     3.98870166
O     0.50710944    -2.27994250    -0.20889934
Cl     1.97299444    -2.54393024     0.61733033
H     0.45047353    -2.87817533    -0.96354891
O     0.67738611     1.22279252     3.57890275
Cl    -0.04278948     0.51982980     4.95307573
H     0.17025467     0.74171323     2.91409564
C     5.11623641    -0.23390502     0.84937370
C     4.96961103     0.59915776     1.95174835
C     4.05133741     1.62816095     1.86448499
C     3.11988302     1.72497037     0.82529710
C     3.19618340     0.83036612    -0.24182845
C     4.28131210    -0.03846696    -0.24694859
H     5.41128469     0.34747610     2.90695284
H     4.10012044     2.36192726     2.66148104
C    -1.45214022     3.45475490     1.11675722
C    -2.08204553     3.67182268    -0.11124047
C    -2.14435399     3.52894411     2.32886002
C    -3.47102403     3.68893413    -0.10049508
H    -1.45036548     3.76518846    -0.97993441
C    -3.51736558     3.71001044     2.36227385
C    -4.12552651     3.78232947     1.11768847
H    -4.01299331     3.66988876    -1.03710694
H    -4.08391001     3.75243517     3.28315310
Cl     6.24508461    -1.54773771     0.78042543
Cl    -5.86546061     3.90481383     1.13339806
N     2.13426202     2.70609763     1.01364654
H     2.16008081     3.18570029     1.89968796
C     0.90592329     2.76767047     0.37473582
O     0.77772460     2.52827132    -0.80233149
N    -0.07286006     3.20451577     1.24617297
H     0.28529077     3.33962867     2.17854657
H    -1.63786960     3.46205178     3.28615988
H     2.50647782     0.88758421    -1.06826492
Cl     4.27292434    -1.15024752    -1.57706996
