70
 energy: -143.110868870980 gnorm: 0.101868723457 xtb: 6.6.1 (8d0f1dd)
O     0.46854584    -3.49055677    -0.72251373
H     1.01710213    -3.99775494    -1.32349131
H    -0.44710083    -3.73891741    -0.86124673
O    -0.19454712     3.35513599    -4.48125311
H     0.57167130     2.85341497    -4.76502089
H    -0.07215866     3.53848104    -3.54811661
O    -1.43024478     4.47856834     1.53125347
H    -1.75189606     4.57202365     0.63284089
H    -1.90968670     5.05370579     2.13016141
O    -0.58676256     1.54753593     3.03703412
H    -0.27642265     1.87159779     2.18967822
H    -1.49986999     1.81069843     3.16477913
O    -0.82242418     0.52035409    -2.68903115
H    -0.50110102     0.65456071    -1.79567836
H    -0.91564038     1.41364795    -3.02470201
O     0.87250139    -1.27473356    -3.60086381
H     0.32661300    -0.50213962    -3.75720465
H     0.86545356    -1.40891254    -2.65150309
O    -2.38383799    -1.91661183    -2.23779864
H    -2.65821124    -2.15498322    -3.12506175
H    -2.06079209    -1.01686346    -2.16409099
O    -4.32808588    -2.02321006    -0.06668744
H    -4.96776581    -1.39106902    -0.39917123
H    -3.62644422    -2.15855769    -0.70599683
O     0.06287031     3.30720895    -1.62930647
H     0.91248879     3.68744925    -1.85931592
H     0.03609093     3.01477967    -0.71656017
O     1.77130388     1.52965741    -5.64440949
H     1.60595374     0.59875810    -5.48496005
H     2.71065333     1.50359806    -5.83488739
O    -2.68962607     2.35855439    -5.01134957
Cl    -3.60187276     1.95811095    -3.62982388
H    -1.78571695     2.58876553    -4.76530576
O     0.67329196     3.23220292     1.06580294
Cl     2.34702005     3.45523883     1.28953030
H     0.11024616     3.81537548     1.58875254
O     0.67923903    -0.65564470     4.13349398
Cl     0.00355455    -1.07490675     5.63975877
H     0.23054359     0.06554112     3.67616528
O     4.32642146     4.42178353     4.09500128
Cl     3.02159031     4.42503422     5.18979164
H     4.20779093     3.61718215     3.57622244
C     4.79679584    -1.50822145    -0.18889118
C     4.20478875    -2.53533453     0.53587691
C     2.86650130    -2.43230574     0.86460271
C     2.16266151    -1.23693424     0.68408313
C     2.77622851    -0.18163707     0.00971022
C     4.08019972    -0.34268541    -0.44429855
H     4.70051707    -3.48333605     0.69830061
H     2.44911985    -3.31123934     1.34341783
C    -2.59886975     0.01181070     1.38276131
C    -2.86806112     1.01283718     0.44608668
C    -3.54683688    -0.19465677     2.38903492
C    -4.12096217     1.61002892     0.38889880
H    -2.15431420     1.29658640    -0.31049623
C    -4.70470680     0.55583740     2.51215278
C    -4.98162667     1.41298329     1.45730740
H    -4.38951726     2.32082382    -0.38180475
H    -5.33063469     0.39199774     3.37942544
Cl     6.49172435    -1.57678111    -0.54627807
Cl    -6.53602081     2.19720764     1.35020512
N     0.82679232    -1.26766066     1.11308699
H     0.61499908    -2.12293982     1.60236798
C    -0.15084551    -0.31810849     0.86131518
O    -0.02016310     0.60365883     0.09157408
N    -1.33601038    -0.59620538     1.51423147
H    -1.25089504    -1.29176792     2.23865963
H    -3.43856858    -1.03889170     3.06206491
H     2.14476214     0.68362659    -0.11084655
Cl     4.90834864     0.97254660    -1.21220696
