70
 energy: -143.138914453404 gnorm: 0.118684423626 xtb: 6.6.1 (8d0f1dd)
O    -0.35030128    -1.49133037     0.05848471
H     0.26992450    -1.24019928    -0.62824024
H    -1.11322294    -0.91227316     0.10300412
O    -4.38968660    -1.45151226    -1.94031570
H    -5.32485021    -1.52159830    -2.14005493
H    -3.82997682    -1.98939859    -2.50311347
O     0.45131512    -0.90919179     2.77631534
H     1.20324914    -1.04687577     3.35508729
H     0.21778476    -1.72129239     2.32322094
O    -2.72713465    -0.22396632    -0.30465807
H    -3.27534473    -0.94312864    -0.62342169
H    -2.46674899     0.36991245    -1.01094823
O     0.25362962    -1.51175575    -4.68616925
H     0.10432132    -0.58029352    -4.51463405
H    -0.60423140    -1.81753446    -4.38631603
O     2.15233281    -2.77188391    -0.51528552
H     2.44401473    -2.03975481    -1.06140512
H     1.35212371    -3.08519381    -0.94054045
O    -0.57881024    -3.95448887    -0.97903871
H    -0.81173400    -3.23480106    -0.38985841
H    -0.50566552    -4.74963671    -0.44825783
O    -2.26659444     0.09626946     2.91512083
H    -2.73307572    -0.35135763     2.20705065
H    -1.42949962    -0.32775977     3.11211826
O     1.53179805    -0.58607910    -2.08579551
H     1.30878300    -0.87072750    -2.97381475
H     1.55094283     0.37249744    -2.07568025
O    -2.54751108    -3.05404612    -2.90491040
H    -1.76614504    -3.02449923    -2.34999381
H    -3.02726116    -3.88125622    -2.83489897
O    -1.48396595     0.66995823    -2.95790557
Cl    -2.65039890     1.79907406    -3.47336054
H    -0.89386433     1.26733402    -2.48302806
O     1.39604201     1.51468141     4.00975493
Cl     2.71265602     2.47267695     4.50969167
H     0.61400365     1.94391898     4.37684921
O     0.59805255    -3.45781902     1.44359994
Cl     1.08128896    -4.85281447     2.29309042
H     1.24720969    -3.16105924     0.79466639
O    -1.16713539     2.28558427     6.17285049
Cl    -1.10583750     3.42971466     4.91254534
H    -1.92053613     1.72977319     5.94036514
C     5.12419771     0.31165316    -0.55070414
C     4.53885361    -0.46325493     0.44308276
C     3.26014999    -0.22444269     0.90953184
C     2.52901930     0.82877413     0.35000244
C     3.18692097     1.71344071    -0.50406195
C     4.38453265     1.35006288    -1.10911109
H     5.12320381    -1.23765355     0.92232861
H     2.74306605    -0.94872619     1.52923591
C    -1.88121194     3.04912230     0.56979397
C    -2.09265048     3.93416454    -0.49033401
C    -2.82986484     2.97167587     1.59347204
C    -3.23024815     4.73070822    -0.45778880
H    -1.46067665     3.91117076    -1.36351573
C    -3.89272804     3.85774690     1.65875772
C    -4.07944123     4.77673469     0.63666082
H    -3.29977895     5.34303892    -1.34748074
H    -4.60878831     3.79597052     2.46760405
Cl     6.60242449    -0.20006868    -1.29782862
Cl    -5.41023141     5.89970449     0.53391750
N     1.19483174     1.02133124     0.74038725
H     0.89190930     0.73196995     1.65704572
C     0.25945434     1.79000955     0.06583784
O     0.36901742     2.07795880    -1.10220129
N    -0.86468428     2.10400112     0.80473902
H    -1.10146320     1.47118790     1.55262349
H    -2.70795201     2.19553977     2.34191979
H     2.71143412     2.60968843    -0.86822852
Cl     5.10189492     2.43841375    -2.25201666
