70
 energy: -143.141985957505 gnorm: 0.123039705729 xtb: 6.6.1 (8d0f1dd)
O    -4.27854159    -0.32342398     2.75735865
H    -5.08557433    -0.60150912     3.19405629
H    -4.21212154    -1.09000017     2.18526774
O    -3.35265879    -0.78450448    -1.45275294
H    -3.22999332     0.02830985    -1.94633661
H    -3.92901988    -0.59509839    -0.71027647
O    -1.42074649     0.15399577     3.21493618
H    -1.01777723    -0.70294705     3.06459196
H    -2.36821596     0.03054707     3.13493368
O    -3.17530588    -2.64124792     1.62912092
H    -3.25605355    -3.47157599     1.15649623
H    -2.42395577    -2.92491534     2.15289976
O     0.20387106    -3.08909735    -1.88541942
H     0.28065472    -2.13761134    -1.97551847
H     0.96610800    -3.52164217    -2.27431262
O     0.29380914    -4.38101795     0.51066956
H     0.01162411    -4.04483971    -0.34179380
H     1.20933044    -4.64011134     0.62912135
O    -2.34556008    -3.28803668    -2.55864225
H    -1.42655656    -3.12552013    -2.33873696
H    -2.88499642    -2.49648408    -2.51631609
O    -3.07060836    -4.57036344    -0.30131880
H    -2.89090571    -5.43544652    -0.67371159
H    -2.59105696    -3.98949719    -0.89458212
O    -0.55078330    -0.49446620    -1.64824798
H    -1.48716108    -0.64997324    -1.51277549
H    -0.29605970     0.42612778    -1.73167713
O    -3.34214796     1.50058685    -2.73021806
H    -2.75675046     2.25039746    -2.61008419
H    -3.45489959     1.27698284    -3.65575931
O    -0.93243742     3.13419596    -2.83992599
Cl    -0.44740839     4.76592298    -2.89802925
H    -0.22469823     2.72811237    -2.32535067
O     3.38310980     4.32575533     0.99797138
Cl     2.06113186     3.96916291     2.01107593
H     2.96827339     4.49822985     0.14430259
O    -0.22135677    -2.33934861     2.44149823
Cl     0.81729105    -2.97416975     3.63287417
H    -0.12858983    -3.00530291     1.74977192
O     0.86922117     1.75968094     4.18652912
Cl     1.98296955     0.57601116     4.69608896
H     0.04059065     1.27672090     4.08304421
C     5.30353290    -0.08518475    -0.07826544
C     4.51191682    -0.99222116     0.61552965
C     3.18399357    -0.73574465     0.89930542
C     2.59155497     0.43796094     0.42147414
C     3.32662338     1.32640441    -0.36289714
C     4.66757466     1.04096323    -0.59262465
H     4.93290301    -1.81784627     1.17405342
H     2.51108537    -1.38542703     1.44803389
C    -2.05525425     2.38178228     0.33216123
C    -2.08840049     3.71838625    -0.07313954
C    -3.26962404     1.75622175     0.62853476
C    -3.27831557     4.37730156    -0.35527833
H    -1.12225223     4.19677484    -0.06489623
C    -4.47275112     2.36104384     0.30336119
C    -4.45005126     3.65345961    -0.19985722
H    -3.26693176     5.41637957    -0.65780524
H    -5.42020825     1.89307307     0.53599701
Cl     6.90283612    -0.64815585    -0.43951531
Cl    -5.93457564     4.51258863    -0.51719718
N     1.26291678     0.74444057     0.75362763
H     0.95265013     0.36573708     1.63457772
C     0.35766138     1.60477713     0.15267170
O     0.61662958     2.10764662    -0.91470459
N    -0.87537944     1.74391611     0.75971720
H    -1.03846616     1.15045010     1.55787064
H    -3.25015307     0.76011099     1.05842814
H     2.88267273     2.24367987    -0.71429239
Cl     5.64247942     2.10098041    -1.55764991
