70
 energy: -143.151694540831 gnorm: 0.096003615135 xtb: 6.6.1 (8d0f1dd)
O     0.46854579    -0.92396732     2.80870538
H     0.95039895    -1.71203254     2.55158914
H     0.16956979    -0.49082880     2.00724231
O    -3.08039921     0.01679584    -2.02683500
H    -3.14092963    -0.93385294    -1.91755665
H    -2.58421159     0.38253587    -1.29241676
O    -2.39818578    -2.38002967    -1.37843226
H    -1.50149325    -2.71207158    -1.44934973
H    -2.86276594    -2.86068374    -0.69106386
O    -0.46268345    -0.42271289    -0.08728293
H    -0.47756419    -0.04254232    -0.96738967
H     0.48280577    -0.51241984     0.04440331
O    -2.75256064    -1.04315249     1.36716679
H    -3.52890858    -1.18895749     0.82369281
H    -1.96421244    -1.21918160     0.85058283
O     1.85533981    -1.30481178    -1.33931681
H     1.25553008    -1.69490915    -1.97758815
H     2.34562284    -0.59158312    -1.75195089
O    -0.02587564    -3.62813517    -0.28138430
H    -0.51638759    -4.19664527     0.31488051
H     0.82916315    -3.61507418     0.15229376
O    -1.17556264     0.39597075     4.69977894
H    -2.10241590     0.53295542     4.49602316
H    -0.90078401    -0.28124869     4.07912843
O     2.10932792     0.91173532    -4.29648575
H     2.30593007     0.95995232    -3.35927643
H     1.97302908     1.83390815    -4.52089100
O    -0.47463564    -0.18622115    -2.84415589
H    -0.16507122     0.31387933    -3.60139278
H    -1.43196870    -0.20435853    -2.79392885
O    -5.31763531    -0.01958992    -0.35148939
Cl    -6.07707128     1.10374085     0.67930991
H    -4.99157949     0.45092501    -1.12794912
O    -0.17843708     2.58316441     3.62555200
Cl    -0.14462422     3.89187984     4.71517821
H    -0.31552694     1.75992695     4.10936347
O     2.29487792    -2.91494493     0.94116391
Cl     3.89251411    -3.49971496     0.85890573
H     2.26126800    -2.37939970     0.13951074
O    -2.49828006     1.58465479     2.21643239
Cl    -3.98022876     2.36241807     2.53277579
H    -2.73904898     0.70598627     1.89932037
C     5.86169767    -0.21445552     0.55259255
C     5.20307552    -0.41250167     1.75995209
C     3.95107850     0.14151103     1.94773466
C     3.38706647     0.93954103     0.94677043
C     4.04252465     1.15172028    -0.26576823
C     5.21376516     0.43805550    -0.49221847
H     5.72872440    -1.04728666     2.46107701
H     3.31214470    -0.22261857     2.74470940
C    -0.99452182     3.01323087     0.00958397
C    -1.22946539     2.79283875    -1.34986678
C    -1.87406039     3.84368004     0.71002900
C    -2.32609474     3.32752287    -2.01408551
H    -0.51152731     2.21123131    -1.90544190
C    -2.95364760     4.39240501     0.03738146
C    -3.16683383     4.18077448    -1.31681450
H    -2.43712556     3.04687522    -3.05343351
H    -3.66263769     5.00336153     0.58038814
Cl     7.24345945    -1.15781069     0.09869399
Cl    -4.52577622     5.00186997    -2.03910095
N     2.06882682     1.35804402     1.18475036
H     1.77039479     1.28319317     2.14448491
C     1.19264270     1.88278138     0.24785854
O     1.40777018     1.79564959    -0.93762133
N     0.07749242     2.50892430     0.77000636
H    -0.08124136     2.49131393     1.76516540
H    -1.69250852     3.97494354     1.77174124
H     3.62835262     1.72625099    -1.07838187
Cl     5.85741129     0.35823267    -2.09991782
