%nproc=8
%mem=4000MB
#opt=(noeigen,calcfc,ts,recalc=5,maxcyc=200) freq B3LYP/SVP em=GD3BJ

ts-2086.gjf

0 1
C  2.97006259934994  -0.97973120060466  3.51246998923743
C  2.08281868977224  -0.97985809008045  2.32694259513706
C  1.81051463039562  -2.40560836036653  2.00604855135127
C  0.93988064069445  -3.51713042824625  1.68750668019439
C  2.36934449907104  -3.18769941340135  3.27650166669387
C  2.86566468788793  -2.31620260470797  4.03936676239612
H  1.67419259178022  -0.28976714886058  1.62014704543619
Cl  3.11530735691239  0.44475537725123  4.30523234690068
N  0.84003546479831  -4.72749015452133  1.52872466252533
H  0.72368703059121  -5.39651541048080  0.87526395534457
H  2.33620414918053  -4.24850544308114  3.48229728670854
Cl  3.99070832229807  -2.87545700362955  5.28738018641340

