%nproc=8
%mem=4000MB
#opt=(noeigen,calcfc,ts,recalc=5,maxcyc=200) freq B3LYP/SVP em=GD3BJ

ts-1814.gjf

0 2
O  -1.23566678724391  -1.94734667489342  5.40619388342381
H  -2.06246253999447  -1.80716724666146  5.86447213978784
O  1.28574432499952  -4.45728624396171  -3.19328932868810
H  0.90822723865283  -4.30104453871041  -2.30319203246735
C  1.12180727356924  2.80410654618692  -2.73160823681885
C  -0.08551754944419  2.87152952655834  -2.03722161777276
C  -0.81795066131824  1.75356163409642  -1.86436916835040
C  -0.21329763846527  0.48360318641998  -1.81457353573810
C  0.88822254436538  0.33793049983611  -2.59594799815497
C  1.46227890770984  1.46947130299546  -3.14056416538930
H  -0.44307289560779  3.89105639846761  -1.88905176179605
H  -1.81177716480555  1.85833863916145  -1.43481431023466
C  -1.10984496500511  -2.06343071662928  1.64978240206501
C  -0.80220666735820  -2.63208805195107  2.91810436053892
C  -2.47515016419992  -1.60140981490445  1.43474338640955
C  -1.82229945290523  -3.02806886724229  3.86519214938243
H  0.17690527002667  -3.20421708127103  2.91290683684333
C  -3.40197288596772  -2.17565208668454  2.28017761409752
C  -3.20253720690289  -2.82936193627295  3.45220975165647
H  -1.60989354295928  -3.67513307272029  4.74861352065133
H  -4.35692771933981  -1.70491093246768  2.09157901631094
Cl  2.51078726640891  3.73805977019020  -2.49393185915169
Cl  -4.55813502800350  -3.61446133742433  4.19188703426488
N  -0.77818853070356  -0.23701056527065  -0.87597950897866
C  0.16989339291630  -0.57141490721100  0.09626992286502
O  1.00958236121421  0.27486824051041  0.43961161943681
N  0.01599910947778  -1.78091786807210  0.91682347086557
H  0.86199313536134  -1.82065150624999  1.44429075315626
H  -2.63995931526728  -0.93474281329311  0.53390647053833
H  1.37283592082249  -0.65239444558595  -2.62924545128687
Cl  2.42462859496360  1.47390267110469  -4.40958662943757

