%nproc=8
%mem=4000MB
#opt=(noeigen,calcfc,ts,recalc=5,maxcyc=200) freq B3LYP/SVP em=GD3BJ

ts-1824.gjf

0 2
O  -0.90168980318224  -1.95733961476274  5.05921244308802
H  -0.42829947127250  -2.66642738377578  5.52414747812401
O  0.78422758462312  -4.59616701361711  -1.85603961692591
H  1.52061065874799  -5.03412761596672  -2.34902690562562
C  1.11001022950080  2.90169938315712  -3.06381158262954
C  -0.33714020489669  2.92741550955477  -2.95339122525314
C  -1.19179192088426  2.03142385945969  -2.38633469768962
C  -0.47833696916346  0.87783950967904  -1.86633074281845
C  0.81293510763686  0.60503133411056  -2.47418083174135
C  1.61679142977734  1.56468850040076  -2.98031963289686
H  -0.62165600914447  3.88292108545654  -3.34375544625688
H  -2.25694665076737  2.13962474452254  -2.57278906966020
C  -1.11502398317585  -2.15950505742063  1.38598859189823
C  -0.82640201325542  -2.87323531386938  2.63155927718144
C  -2.56134115056971  -1.99527204526461  1.23514055905708
C  -1.49649388230396  -2.75297747755990  4.05404865743027
H  -0.22567896417155  -3.76004612126192  2.51618384629045
C  -3.42791473016825  -2.13953712984780  2.39714104219754
C  -2.94427017022877  -2.21375523110219  3.64618667143051
H  -1.63506400704022  -3.89188326138237  4.37047118539714
H  -4.53610842921334  -1.97282797323751  2.27253681102211
Cl  2.18685865693558  4.05814350197160  -2.79904067681444
Cl  -4.29065506112330  -3.24202993404701  4.27695857343532
N  -0.84586736438892  -0.05255750781159  -1.07126997403502
C  -0.00694780480495  -0.58157633865914  -0.12866629268256
O  0.77545677344314  -0.01875239274986  0.70607954800030
N  -0.41588920735507  -1.90000063131090  0.23949390711598
H  0.46461684353198  -2.38882333436822  0.25392264745797
H  -2.85668934679832  -1.65956418531603  0.30225610559021
H  1.17797363378475  -0.39912295789731  -2.32613586470183
Cl  2.87734413694201  1.18527258568611  -4.28057723018514

