%nproc=8
%mem=4000MB
#opt=(noeigen,calcfc,ts,recalc=5,maxcyc=200) freq B3LYP/SVP em=GD3BJ

ts-4417.gjf

0 1
Cl  1.30028115806106  -1.58679771596865  -3.26409438265627
C  -0.90714655316279  -3.41909363069034  0.02681975724675
C  0.28839239336271  -2.61955480798903  0.12263901113577
C  -0.64726384636006  -4.81310743560315  -0.29533675056146
C  1.55479566320567  -3.11254124464361  0.40295079046152
H  0.05137822002296  -1.58700472239716  -0.11667983199869
C  0.56376765623297  -5.39713434541533  0.09744704649782
C  1.70131985451395  -4.56909276198425  0.46334826861678
H  2.39888103487618  -2.43869368510067  0.44363439816762
H  0.64759521326681  -6.47828494378253  -0.10701403500740
Cl  3.35978675123013  -5.28373143878429  0.67805490007925
N  -2.00904680862335  -2.79789075935934  0.18428758055671
H  -2.97342830019661  -3.01923785159994  0.17593896212047
H  -1.37513344699275  -5.41104819254859  -0.82098678873598

