%nproc=8
%mem=4000MB
#opt=(noeigen,calcfc,ts,recalc=5,maxcyc=200) freq B3LYP/SVP em=GD3BJ

ts-4467.gjf

0 1
Cl  1.85295499275734  -1.87388114329847  -3.58109272408480
C  -0.00075706976860  -2.49481414319119  -1.60663912768361
C  1.30423905047808  -1.96994974330049  -1.82919182719188
C  -0.13157546561059  -3.48782985997786  -0.53994299042307
C  2.34033998545284  -2.79516064116989  -1.14490484447305
H  1.25940911921092  -0.90385967192028  -1.54793102391896
C  0.90038171328792  -3.92449307988307  0.25834234811990
C  2.16697657753746  -3.83243999266019  -0.30374021933669
H  3.27567438829249  -2.68833792647561  -1.65483925175749
H  0.86121842001623  -4.62164454281696  1.08252849083250
Cl  3.47172763824128  -4.95536081601576  -0.23521229245140
N  -0.90244076491480  -1.77606864596901  -2.19792810576779
H  -1.86925841501880  -1.91185636611508  -1.83820520013604
H  -1.10945908064052  -3.92172898259331  -0.48019190084169

