70
 energy: -143.134528335092 gnorm: 0.103723985360 xtb: 6.6.1 (8d0f1dd)
O    -3.58742664    -0.62383111     3.08272929
H    -4.47506532    -0.28524981     2.95312101
H    -3.60309652    -1.55861987     3.29548059
O    -4.31974777    -1.76286045    -2.31560149
H    -5.17507359    -1.82026303    -1.88611170
H    -4.13740983    -0.97882368    -2.83654034
O    -0.84582606    -0.15463626     3.01171489
H    -0.75709614    -1.10702011     3.07827783
H    -1.77743520    -0.12405756     3.23645413
O    -3.07722824    -3.34065877     2.60285302
H    -3.04639282    -3.40795869     1.64689336
H    -2.15888999    -3.57529902     2.74755019
O     1.06477108    -1.06465287    -1.72068951
H     0.48980985    -1.01688904    -0.95487139
H     1.25589706    -0.16856256    -2.00323354
O     1.65838322    -3.53217687    -0.20730830
H     2.14422823    -2.85875768    -0.68668207
H     0.86146596    -3.60951416    -0.73483202
O    -0.81838380    -2.81055040    -2.58955930
H    -1.35267940    -2.70050114    -3.37807361
H    -0.32773285    -2.01315300    -2.38278018
O    -2.81962447    -3.16065307    -0.48638748
H    -3.43636214    -2.99242939    -1.20100179
H    -2.11041956    -3.54813714    -1.00235357
O    -1.03141541    -0.67899617    -0.09709913
H    -1.17394941    -0.46114623     0.82570316
H    -1.59334799    -1.44030934    -0.25192758
O    -3.52217730     1.17837909    -2.23530648
H    -2.57264190     1.28179913    -2.15149033
H    -3.96016502     1.58863605    -1.48751354
O    -0.11499403     1.56408699    -3.15119234
Cl     0.61345425     1.09187916    -4.61664282
H     0.37993972     2.24118902    -2.67457946
O     1.69546122     3.94017444     2.62731104
Cl     0.47546029     5.02750903     3.10737967
H     2.48463104     4.21617306     3.10858317
O    -0.01941264    -2.38593786     1.74890050
Cl     0.48206397    -3.51745488     2.91909462
H     0.66620477    -2.48205166     1.07712894
O     0.86423595     0.36905212     5.34044024
Cl     2.49496629     0.34146392     4.84940228
H     0.23090779     0.22004642     4.62820376
C     4.67908339    -0.28125825    -0.44326895
C     4.03858186    -0.95352571     0.59043155
C     2.96221940    -0.40008873     1.25739501
C     2.43345140     0.79611248     0.76101013
C     3.04599730     1.44108734    -0.31308969
C     4.18736072     0.93027794    -0.92034974
H     4.54726660    -1.83713377     0.95280087
H     2.52404217    -1.06040219     1.99765330
C    -1.90163571     3.15805284     0.72101795
C    -1.70844856     4.22887236    -0.15528218
C    -3.21389580     3.02115022     1.18263297
C    -2.71428893     5.09553822    -0.56374894
H    -0.72569367     4.42789868    -0.55144809
C    -4.21838222     3.88366445     0.77503185
C    -4.02680804     4.87347122    -0.17768246
H    -2.43117225     5.96178475    -1.14752730
H    -5.23810628     3.72262222     1.09909876
Cl     6.00427759    -1.04394435    -1.26020143
Cl    -5.29408815     6.00120171    -0.58369366
N     1.19535018     1.23028780     1.25913882
H     0.74648150     0.67906247     1.97357727
C     0.37157801     2.10363772     0.56669848
O     0.73337456     2.71446759    -0.41065741
N    -0.90930179     2.22255061     1.07014682
H    -1.14843605     1.67392219     1.88111523
H    -3.44714300     2.25076017     1.91031355
H     2.51876899     2.32494041    -0.63371255
Cl     4.84677271     1.74872965    -2.29899467
