%nproc=8
%mem=4000MB
#opt=(noeigen,calcfc,ts,recalc=5,maxcyc=200) freq B3LYP/SVP em=GD3BJ

ts-2688.gjf

0 1
O  2.57982479118948  -3.95247628020956  -2.57278520036694
C  2.41197617362753  -1.30147704802183  -0.17957388866170
C  3.75481517249530  -1.39994465102400  0.22013027112218
C  4.74092205170105  -2.41667042673502  -0.05338941984196
C  4.19646842487678  -3.36539435081727  -0.99869019026093
C  2.70077193408119  -3.46295463155509  -1.29588219661847
C  1.84818239870463  -2.21984683727629  -1.07413601930091
H  4.00908676112092  -0.47982590120812  0.74737899748689
H  5.75931609814208  -2.44332015093038  0.36813666385956
Cl  1.82043703044254  0.28384234003136  0.18114192846116
N  4.90552983750170  -4.19213341602043  -1.78875192873151
C  4.13040858182443  -4.58257238819017  -2.83153247403302
O  4.13731246954593  -5.40499092296257  -3.66059820103754
H  2.29616932940297  -3.97846147387366  -0.43739719962612
Cl  0.22675741823769  -2.63166708383819  -1.44473315917788

