%nproc=8
%mem=4000MB
#opt=(noeigen,calcfc,ts,recalc=5,maxcyc=200) freq B3LYP/SVP em=GD3BJ

ts-2698.gjf

0 1
O  2.10229047797889  -3.87528494976935  -2.28476713812077
C  2.45645368352568  -1.18044309315784  -0.13129099275202
C  3.80228770909989  -1.41795710812509  0.12881513584750
C  4.60332011309427  -2.55768441989167  -0.16313427244585
C  4.00745079194258  -3.48439163098344  -0.93570102188176
C  2.51489337986816  -3.50077244819341  -1.00637158928253
C  1.79638749430342  -2.23947691116977  -0.71000052989083
H  4.36480757918848  -0.77361046784698  0.76185617421314
H  5.61879010408766  -2.36902153545527  0.11239967410641
Cl  1.42883035824638  0.14375247657280  0.31293641809526
N  4.47213729435941  -4.30234839831879  -1.82128557962982
C  3.63715888045463  -4.57031664195272  -2.85686218124955
O  3.63591351329130  -5.30475786190316  -3.72374717795799
H  2.20929215519836  -4.21812394707991  -0.09747233315286
Cl  0.23024719086080  -2.43547323537329  -1.11418392226498

