%nproc=8
%mem=4000MB
#opt=(noeigen,calcfc,ts,recalc=5,maxcyc=200) freq B3LYP/SVP em=GD3BJ

ts-2708.gjf

0 1
O  1.99648996713755  -4.48429556270306  -1.89451840581594
C  2.15393687619121  -1.45744719192906  -0.06094379120439
C  3.55384647033199  -1.36287629713351  0.19446273343380
C  4.35301391763180  -2.31237844042637  -0.48798744635321
C  3.72742155319671  -3.28021701989972  -1.12766885265212
C  2.30155449731233  -3.62730442878449  -0.90739291529728
C  1.40923726097045  -2.49234046629461  -0.62602244468815
H  4.06641892763538  -0.63272317425773  0.81240619462108
H  5.40745318591887  -2.20887873906149  -0.51410646811277
Cl  1.40325546600904  0.01476930240499  0.33844094090926
N  4.23054520649882  -4.08920012216633  -2.02446356072896
C  3.33138282149449  -4.53994890744385  -2.76100568951711
O  3.37913673329040  -5.21696244852995  -3.80434436795101
H  2.27920632479675  -4.40453304295535  0.00216729919020
Cl  -0.19155856044142  -1.86503945867963  -0.81694565982935

