70
 energy: -143.149272715715 gnorm: 0.120306378561 xtb: 6.6.1 (8d0f1dd)
O    -3.06453965    -0.98795519     3.62809279
H    -3.72969500    -1.65616965     3.80243680
H    -3.07418483    -0.89341714     2.67399205
O    -2.26405705     1.71208251    -2.15453756
H    -1.34902686     1.69651033    -1.86850248
H    -2.73669656     1.21412458    -1.48521861
O    -0.18007949    -0.73038486     3.48264110
H     0.24714770    -1.24025091     2.79209628
H    -1.06713646    -1.05525868     3.64673042
O    -2.54958997    -1.04013363     0.69665176
H    -3.25465492    -1.27352281     0.09022627
H    -1.67810544    -0.95324819     0.30639017
O     0.79906028    -0.94850396    -3.26630353
H     0.94707929    -0.02506807    -3.47771715
H     1.65030640    -1.38383218    -3.33846646
O    -0.23591984    -0.58840159    -0.53371303
H     0.07679767     0.31736044    -0.49993601
H    -0.16915637    -0.93812618    -1.42397973
O    -1.90913987    -1.85788457    -2.63251194
H    -1.18716640    -1.45170680    -3.11532802
H    -1.59190921    -2.72838300    -2.38566019
O    -4.46169872    -1.11598506    -2.96947352
H    -3.68642592    -1.67981437    -2.98913972
H    -4.46066326    -0.48238677    -3.68911833
O     0.46328408     1.68165803    -3.54159391
H    -0.30903474     2.08069615    -3.94610696
H     0.62088418     2.08110284    -2.68430524
O    -4.27649625     0.48813173    -0.93874500
H    -4.47041099    -0.19029520    -1.58795399
H    -4.90691571     1.17357371    -1.16695301
O    -2.05264467     0.43357985    -4.29707708
Cl    -3.13983930     0.86597265    -5.53490038
H    -2.35844582     0.94750392    -3.54013975
O     3.15386246     3.76942055     3.78311350
Cl     2.31428714     5.08420153     3.09927951
H     2.46600859     3.25499612     4.22221675
O     2.02273793    -2.37962532     1.22905239
Cl     0.74084879    -3.47253290     1.48099897
H     1.59917679    -1.65129612     0.75924534
O     1.23771914     1.38969526     4.46476514
Cl     0.29198691     1.78086982     5.82628409
H     0.89100748     0.53586288     4.17954704
C     5.37652113    -0.59482745     0.38286811
C     5.14005460    -0.21564871     1.69855406
C     4.01164124     0.49907908     2.05286522
C     3.18964352     1.05174981     1.06505671
C     3.43007037     0.72877925    -0.27015129
C     4.45394797    -0.16373693    -0.56594007
H     5.83151766    -0.47961321     2.48788065
H     3.94101018     0.79301308     3.09431111
C    -1.34178071     2.95566211     1.63327017
C    -1.61817407     3.65106490     0.45348240
C    -2.42216435     2.45742269     2.36701799
C    -2.93755750     3.75651203     0.03184530
H    -0.83321178     4.12902764    -0.11021242
C    -3.73036189     2.63004927     1.94525787
C    -4.02110370     3.30513665     0.76890385
H    -3.04872222     4.23364014    -0.93320723
H    -4.53902044     2.23124474     2.54343626
Cl     6.59328573    -1.75988473    -0.02619656
Cl    -5.59530749     3.40442311     0.02415922
N     2.06143554     1.73034780     1.55104690
H     2.09759848     1.81002738     2.55508780
C     0.87780493     2.15975216     0.97187104
O     0.59576250     2.28371865    -0.19616950
N    -0.05105094     2.48550137     1.94108085
H     0.10248904     2.16440273     2.88403853
H    -2.21313229     1.92268238     3.28776903
H     2.72333149     0.89469861    -1.06699247
Cl     4.64827496    -0.57264628    -2.23937348
