%nproc=8
%mem=4000MB
#opt=(noeigen,calcfc,ts,recalc=5,maxcyc=200) freq B3LYP/SVP em=GD3BJ

ts-4543.gjf

0 1
O  3.16319439095190  -1.86733041733059  -1.96427957001645
Cl  -1.14482232416853  -4.21661569620356  -2.70316338809868
H  3.96601696999389  -1.51451425718772  -2.34078725230369
Cl  0.11044258768032  -1.04315386521270  1.47752709887210
C  -3.73592998605494  2.46806815908698  -1.55684960172847
C  -2.68179925815102  2.69835693082382  -0.69633077973669
C  -1.56926234947745  1.83688954671525  -0.55467778475943
C  -1.47382237329232  0.60744744007856  -1.22055147280392
C  -2.64392448198559  0.28534662756918  -1.99637976044278
C  -3.66771065387977  1.19581400390562  -2.24044836361619
H  -2.80019000003186  3.49005828318884  -0.01445960754046
H  -0.77750485967502  2.25696577347697  0.04209590238756
C  0.99582297707401  -3.35184052361074  -0.66946691677933
C  3.35175806653112  -3.31414244532195  -1.87077143843989
C  0.12295785913929  -4.35790300641053  -0.34242126732773
C  2.29114078791248  -3.99535389205928  -1.07573858746930
C  0.70665012549336  -5.67019456585280  -0.49370717650312
C  2.02149210064902  -5.38488834941685  -0.88460908778172
H  0.26100126377366  -6.63629063114775  -0.34582431255477
Cl  -5.20448143053583  3.27587600180841  -1.96982139549540
Cl  3.40798776409535  -6.33452683488183  -1.07140528543816
N  -0.54515119357461  -0.32889126861150  -0.95087732828701
C  -0.02715678009476  -1.16415018467700  -0.05763776913620
O  4.30046889016938  -3.90401987154484  -2.46191566906415
N  0.94912624889207  -1.99426767659267  -0.72919443841007
H  1.55372348302955  -1.63893822604528  -1.52801610740177
H  -0.89331940875850  -4.27467993102861  0.00925410379152
H  -2.70387850579835  -0.69489986432113  -2.44217148119676
Cl  -5.13159997238368  0.61794243833832  -3.07526743365707

