%nproc=8
%mem=4000MB
#opt=(noeigen,calcfc,ts,recalc=5,maxcyc=200) freq B3LYP/SVP em=GD3BJ

ts-4573.gjf

0 1
O  3.37780043028022  -1.95104371771339  -0.15313812631657
Cl  -1.18726306462654  -4.97478143301533  -2.31174310947824
H  3.91662624229136  -1.63602538289976  0.61826932881950
Cl  -0.43588494049014  -2.39704640627133  0.84921654469751
C  -3.40844147286324  2.60853700594067  -1.27153662595445
C  -2.36797301421507  2.66425013888832  -0.38493005412202
C  -1.49496528193491  1.56934019437853  -0.31209124402114
C  -1.80073058605708  0.39471070399779  -0.83058862064147
C  -3.02550445849899  0.26407023708763  -1.49760435282416
C  -3.68603119031235  1.37067867200482  -1.95806517454596
H  -2.17256069577719  3.56480220879169  0.11965007386867
H  -0.53119873844650  1.80954598443495  0.11705637774236
C  0.97524797987208  -3.24746303229713  -1.23491919200135
C  3.54279410603978  -3.19134157811105  -0.73238641753558
C  -0.06204698086577  -4.40967221737953  -0.97157074316200
C  2.22559566193260  -3.83951761860898  -0.98022503891855
C  0.83529233225032  -5.72380460161654  -0.83597533676307
C  2.19568852853963  -5.33876654434194  -0.71581942456345
H  0.43864748568220  -6.71988012017158  -0.61058955253470
Cl  -4.22883298257890  3.99915198973450  -2.06374355989430
Cl  3.61360080240301  -6.39944437971721  -0.79754833819637
N  -0.75941348844274  -0.38308716967349  -1.24959280051702
C  -0.23751917249700  -1.48857617072074  -0.81056300517960
O  4.60148999077299  -3.76045962805124  -0.65932411200041
N  0.89490514017328  -1.87141275044859  -1.37905533331444
H  1.77790584893266  -1.39622474603594  -1.04873065640506
H  -0.64498542671547  -4.31157566709636  -0.01546634224011
H  -3.31044706277421  -0.67771048850107  -1.94247839564825
Cl  -4.59223047372698  1.23600745049124  -3.42669513068012

