%nproc=8
%mem=4000MB
#opt=(noeigen,calcfc,ts,recalc=5,maxcyc=200) freq B3LYP/SVP em=GD3BJ

ts-3621.gjf

0 2
O  -1.36319502358774  -2.51430830705837  -2.90608977019769
Cl  -0.40888226180864  -4.59544024712721  -4.71374654453697
H  -1.98279473959474  -2.69888772335574  -2.14523690847129
C  1.28148374917970  -5.08035565172267  -2.61827574334271
C  0.03240114665480  -4.42088881172755  -2.72543353983007
C  0.02129167311864  -2.92467152901715  -2.59057092455665
C  1.17655470222184  -2.35642211122141  -1.64547707575657
C  2.43461663056397  -3.00590919292439  -1.84346282184893
C  2.44104451318470  -4.35189631267699  -2.20098087853662
H  -0.83736577621406  -4.99512627167907  -2.45808933425557
H  0.59576901317388  -2.50206935131134  -3.39262992403204
Cl  1.41604736538450  -6.62809438194602  -3.08345978592682
N  0.92874381888159  -1.28445740828498  -0.94544732570271
H  1.69744270739990  -0.69124848029769  -0.76208306296856
H  3.14451384531056  -2.23479545735775  -2.12639933266113
Cl  4.08196332361290  -4.61190987991983  -2.82599041926789

