%nproc=8
%mem=4000MB
#opt=(noeigen,calcfc,ts,recalc=5,maxcyc=200) freq B3LYP/SVP em=GD3BJ

ts-3641.gjf

0 2
O  -0.83070047859409  -2.28870097842463  -1.81262058277885
Cl  -1.36021231638844  -4.10059443143176  -4.92970567422885
H  -0.94483234628912  -1.38300999866482  -1.52788495374976
C  1.07497089077960  -4.76757838284978  -2.93463948128987
C  -0.00878586918667  -3.89949418996622  -3.14597086551808
C  0.07987033196472  -2.42793923431933  -2.84073517734458
C  1.42828247021807  -1.94146456175291  -2.40995991827490
C  2.62352265428235  -2.95497152710664  -2.77989993197130
C  2.33095126789909  -4.22503913844666  -2.89812100600743
H  -0.91091435472750  -4.35564709920892  -2.60518201419995
H  -0.16710057147514  -1.78495200119551  -3.74480500229280
Cl  0.95740562221686  -6.34100504087856  -3.68755456919575
N  1.62653424697319  -0.92640730537959  -1.78130947120120
H  2.52130466679643  -0.66359302101588  -1.41436426122710
H  3.54607314825337  -2.84369221966152  -2.26243051808051
Cl  3.71965289709135  -5.38045201754449  -2.91902386491890

