%nproc=8
%mem=4000MB
#opt=(noeigen,calcfc,ts,recalc=5,maxcyc=200) freq B3LYP/SVP em=GD3BJ

ts-3661.gjf

0 2
O  0.45936690145571  -1.83551096211628  -1.36817276400806
Cl  -1.99595309759913  -3.86079370538495  -5.53646757370799
H  1.01180247657535  -1.01498888164014  -1.35819292792051
C  0.84531008367263  -4.64779061982542  -3.18799527449623
C  0.03843706933863  -3.61970526853907  -2.98342658769380
C  0.59075284748036  -2.27578618926694  -2.61135593290939
C  2.09354097455907  -1.98469569794926  -2.92096870140051
C  2.80883922973395  -3.16847041628318  -3.33429683508297
C  2.27600256432144  -4.42357762262026  -3.24198940958285
H  -1.03008260312273  -3.77943208321784  -3.10915966654892
H  -0.05681813450899  -1.64794097318376  -3.30318766998409
Cl  0.27826176871221  -6.08933581123651  -4.10256426282692
N  2.56068004536353  -0.85104865925103  -2.54143893939760
H  3.54334573319645  -0.90318481949333  -2.85957509594355
H  3.90773247153732  -3.00836535623238  -3.42799032435241
Cl  3.31449759559181  -5.66438037821032  -3.29814647324604

