%nproc=8
%mem=4000MB
#opt=(noeigen,calcfc,ts,recalc=5,maxcyc=200) freq B3LYP/SVP em=GD3BJ

ts-3671.gjf

0 2
O  0.76944297554660  -2.23332390166707  -1.02199954341596
Cl  -2.23780332131372  -3.72723783258087  -5.77807799313964
H  -0.05832818028595  -2.65251423836732  -0.70426425697185
C  0.91118892669076  -4.37312218342457  -3.47014376415397
C  0.27821089991790  -3.28462214523903  -3.03436109981946
C  1.00349105380152  -2.11028216555535  -2.49916164960134
C  2.54646184447442  -2.15688892388602  -2.92523015596455
C  3.09062724389978  -3.45369305041919  -3.00317107263104
C  2.32133009733886  -4.56086923310183  -3.46233667609516
H  -0.82561993553242  -3.40638394007292  -3.12082721697686
H  0.65230713528153  -1.19347677737221  -2.94214772705156
Cl  0.02373736473674  -5.77920274440709  -3.83600411364910
N  2.91161428021731  -0.92111883741673  -3.16525406407973
H  3.75362493831992  -0.58848252396874  -3.66345549720754
H  4.16981078837867  -3.31342177915240  -3.36103766915576
Cl  3.24400495185867  -6.10130272177363  -3.70000903785935

