70
 energy: -143.145855047704 gnorm: 0.107327161613 xtb: 6.6.1 (8d0f1dd)
O    -2.91308241     0.36094568    -0.09777457
H    -3.06375961     1.01251706    -0.78486200
H    -3.60954281    -0.29071737    -0.19584024
O    -4.97663304    -0.75148579    -2.86265292
H    -4.07782979    -0.48203208    -3.05984879
H    -5.19739094    -1.32025044    -3.60232230
O    -0.60953701     0.17864763     1.69791145
H    -0.41666725    -0.73253510     1.47012666
H    -1.53616973     0.30974587     1.48933673
O    -4.89585068    -1.62826250    -0.02797577
H    -4.30269469    -2.34881857    -0.24775726
H    -5.32547146    -1.30122198    -0.82031972
O     1.76498071    -0.83118727    -3.15800153
H     1.02108773    -0.57747251    -2.60882829
H     2.44698615    -0.17412747    -3.00807114
O     0.43061730    -3.55526908    -2.09887548
H     0.84843286    -3.34700652    -2.93636867
H    -0.29939241    -4.14865568    -2.28412562
O    -2.36755005    -4.92060398    -2.14449788
H    -2.86240124    -4.15832623    -1.83889622
H    -2.80990012    -5.68051790    -1.76214223
O    -2.43361958    -2.76255299    -0.92953198
H    -1.78479097    -3.06371938    -0.29105064
H    -2.14887554    -1.90384214    -1.24713711
O    -0.49114730    -0.09816774    -1.48844360
H    -0.18240110     0.72346354    -1.10252078
H    -1.18333813    -0.13119171    -0.82578300
O    -2.34638242    -0.31927238    -3.62830657
H    -1.43250239    -0.13167893    -3.40701420
H    -2.31352366    -0.98742323    -4.31520762
O    -0.10131680     2.56708186    -3.38543398
Cl    -1.77138634     2.88629273    -3.48610349
H     0.13581949     2.83327879    -2.48905683
O     1.48547849     3.61843261     3.64082369
Cl     2.38029751     4.87971891     4.35470073
H     1.42922001     2.77565382     4.10681297
O     0.57676364    -2.12130847     0.29127661
Cl     2.24215151    -2.41633251     0.49279054
H     0.51806405    -2.58926468    -0.55024431
O     0.92212864     1.03101265     3.71786541
Cl     0.06892840     0.19130970     4.92952095
H     0.57386000     0.73108067     2.86972755
C     5.09890836    -0.33355981     0.83068911
C     4.95871799     0.56227272     1.88356776
C     4.02440928     1.58048296     1.88152807
C     3.08385296     1.64173891     0.84784897
C     3.13614417     0.71832556    -0.19592736
C     4.15223407    -0.23026791    -0.18437548
H     5.70566658     0.54543763     2.66626780
H     3.92299421     2.23349445     2.74134580
C    -1.34639803     3.65448975     1.22857490
C    -2.04271857     3.72281194     0.01929942
C    -2.06518368     3.67732436     2.42719197
C    -3.42719452     3.60930811     0.01573114
H    -1.52911015     3.80861454    -0.92473994
C    -3.45016604     3.70386690     2.44066903
C    -4.10815758     3.69962429     1.21955822
H    -3.98833273     3.49951327    -0.90318353
H    -4.04202027     3.76111970     3.34467219
Cl     6.26251957    -1.61840099     0.85070883
Cl    -5.81736381     4.04589818     1.25600473
N     2.10932100     2.61802978     1.10607109
H     2.15624007     3.03893401     2.02061632
C     0.86932944     2.78738894     0.51062787
O     0.51712683     2.36545393    -0.56508514
N     0.05895793     3.59475463     1.28503866
H     0.38815695     3.71496050     2.23003950
H    -1.47920953     3.65712887     3.34023659
H     2.37405730     0.64463440    -0.95471471
Cl     4.33231589    -1.26671487    -1.56230786
