70
 energy: -143.145367289362 gnorm: 0.114072232342 xtb: 6.6.1 (8d0f1dd)
O    -2.96787291     0.17156838     0.18393367
H    -3.65958352     0.69128268    -0.22931140
H    -3.39752896    -0.63426885     0.47609923
O    -5.07350197    -0.71096707    -2.80423862
H    -4.19292849    -0.56632018    -3.15496133
H    -5.75221202    -0.36161045    -3.38444607
O    -0.71207938     0.10485356     1.75426872
H    -0.11183633    -0.52935005     1.35824766
H    -1.54107185    -0.02736205     1.29098816
O    -4.89066076    -1.83764933     0.02638310
H    -4.23719904    -2.53043762     0.13760870
H    -5.07532545    -1.62341771    -0.88977312
O     1.09052081    -1.29355941    -3.11475348
H     0.74366295    -0.55263239    -2.61469751
H     1.39943868    -1.00563084    -3.97556995
O     0.09051149    -3.27704874    -1.67116426
H     0.58091260    -2.78128441    -2.32923907
H    -0.45618710    -3.89506236    -2.15954860
O    -1.86897411    -4.92865873    -2.85629182
H    -2.30902350    -4.42076877    -2.17237534
H    -1.52152686    -5.76194683    -2.53341423
O    -2.33136048    -2.27992998    -1.49994600
H    -1.37682222    -2.36656989    -1.47370855
H    -2.69015082    -1.61441896    -2.08960785
O    -0.75409277    -0.08287975    -1.42139193
H    -0.28972431     0.54997588    -0.87076113
H    -1.48439692    -0.32488102    -0.84917776
O    -2.28306102    -0.35319599    -3.78330529
H    -1.60952910    -0.35763781    -3.10090265
H    -2.06440547     0.17985920    -4.54971263
O    -0.46152515     2.12125474    -3.35196372
Cl    -1.60693696     3.22584123    -3.95948548
H    -0.42307665     2.05828595    -2.39012014
O     1.43377570     3.82168171     3.85149054
Cl     2.35983015     5.19643581     4.24345864
H     1.50073937     3.13675906     4.52749640
O     0.57891184    -2.03343615     0.67899299
Cl     2.23633999    -2.38832751     0.84676625
H     0.43035607    -2.29149992    -0.23856922
O     0.89333730     0.85290166     3.81966315
Cl     0.26740114    -0.09227278     5.09088698
H     0.49229456     0.66675936     2.96228118
C     5.05903496    -0.39568063     0.79580340
C     4.98811079     0.40165788     1.93156031
C     4.00068949     1.36304549     2.03364885
C     3.14640663     1.61227247     0.95430752
C     3.35570320     0.91416953    -0.23470168
C     4.25124394    -0.14637587    -0.30988116
H     5.69951374     0.28802997     2.73891991
H     3.83736797     1.95637918     2.92655242
C    -1.33086734     3.58247392     1.19465375
C    -2.06724521     3.69316905     0.01254897
C    -1.98000562     3.93697313     2.38074270
C    -3.45535716     3.74359133     0.02905274
H    -1.60967916     3.52589671    -0.94923028
C    -3.35848284     4.07393685     2.37055282
C    -4.12903474     3.91093285     1.22872884
H    -4.02037813     3.81154212    -0.89152816
H    -3.75668954     4.35574776     3.33637119
Cl     6.30714469    -1.59833229     0.82835766
Cl    -5.86783939     3.93660939     1.36481340
N     2.15881082     2.60507708     1.04665807
H     2.19100651     3.07908816     1.93549535
C     0.89650186     2.56325489     0.47600822
O     0.63875303     1.94044455    -0.52644237
N     0.03592616     3.26224681     1.30006724
H     0.28786002     3.38811014     2.26781505
H    -1.42111303     3.98683099     3.30949311
H     2.79544545     1.24127637    -1.09556022
Cl     4.38322881    -1.22040745    -1.66427609
