%nproc=8
%mem=4000MB
#opt=(noeigen,calcfc,ts,recalc=5,maxcyc=200) freq B3LYP/SVP em=GD3BJ

ts-225.gjf

0 1
O  -4.09988050400731  2.63136598485187  2.45427775491233
Cl  -4.20423078872533  3.88291113976371  3.80467792512768
H  -3.99339261846069  3.37536734247899  1.77433655709730
O  -0.99087500328517  0.99966128721211  2.04457816942512
Cl  -2.27415933144079  -0.10886573508441  2.21750385821124
H  -0.23881598617867  0.48504363936257  2.33664272372456

