%nproc=8
%mem=4000MB
#opt=(noeigen,calcfc,ts,recalc=5,maxcyc=200) freq B3LYP/SVP em=GD3BJ

ts-235.gjf

0 1
O  -3.72466389814503  3.14891295985634  2.57649109534282
Cl  -3.72621913074146  3.88564315204794  4.10586263464870
H  -2.96409021335620  2.24801929185036  2.82419313525404
O  -2.41501203751893  1.70434543075445  2.24184498345290
Cl  -2.35587874784030  -0.69613706669289  2.60286884342488
H  -2.05276200847394  1.32235207315334  3.09881461822008

