%nproc=8
%mem=4000MB
#opt=(noeigen,calcfc,ts,recalc=5,maxcyc=200) freq B3LYP/SVP em=GD3BJ

ts-265.gjf

0 1
O  -3.23251400927837  5.17690330897010  5.65736706894466
Cl  -3.93282593912158  5.25582274634481  4.23685227827982
H  -3.06480662106589  0.56813990849850  1.92569542522969
O  -2.74858908391805  0.85902823288361  1.07572412600105
Cl  -2.63506668244538  -3.33097077903055  3.79517378706007
H  -1.78351985681283  0.52427458203996  1.07061314255278

