70
 energy: -143.133695708820 gnorm: 0.101627347880 xtb: 6.6.1 (8d0f1dd)
O    -1.62556579    -1.92814114     2.60581480
H    -2.28943861    -1.74052824     3.27170692
H    -1.99628997    -2.67378030     2.13049962
O    -0.68668233     3.09469636    -4.89608516
H    -0.56961688     3.25680740    -5.83382419
H     0.04035103     3.37455077    -4.33711998
O    -3.45479521    -0.49556247     4.29616657
H    -2.91664127     0.12561834     3.80234135
H    -3.20986868    -0.25819605     5.19227290
O     1.33188774     1.78734063     3.25305916
H     1.90102332     1.04454438     3.04406780
H     1.93548392     2.50591882     3.44966918
O    -0.96486967    -1.30349863    -0.96591868
H    -0.13097152    -1.77573339    -0.93513889
H    -1.11908222    -0.91528803    -1.82896510
O     0.87591448    -3.55496283    -1.79807981
H     0.68236031    -3.09125214    -2.61468691
H     1.67274904    -4.01087346    -2.07473776
O    -2.54469739    -3.01096366     0.19698969
H    -2.23029485    -2.23897545    -0.27684856
H    -2.47428502    -3.76758585    -0.38773550
O     0.95597395    -1.25569566    -3.40151368
H     0.37398699    -0.78019236    -3.99693452
H     1.84633283    -0.90490356    -3.34199497
O     0.50238948     3.72602902    -2.34907414
H     0.22256929     3.11366243    -1.66639822
H     1.28203694     4.12273330    -1.95650140
O    -1.86569773    -0.21210205    -3.54738864
H    -1.80100411     0.58712583    -3.02166260
H    -2.74018831    -0.02025502    -3.89060756
O    -3.28680275     2.55816238    -3.86475948
Cl    -2.74861810     2.64267421    -2.25095117
H    -2.51894856     2.88617202    -4.34787027
O     2.76250618     3.95103379     1.54976980
Cl     2.67294251     5.36525243     0.60471496
H     2.56228809     3.23691590     0.93289423
O     0.87129378    -1.91321587     3.47357709
Cl     1.49919243    -1.13839405     4.85435885
H    -0.08824349    -1.83916937     3.40730894
O    -0.87227323     0.72851319     4.52417822
Cl    -1.68563165     2.22143580     4.42029847
H    -0.14142045     0.84371409     3.90517011
C     4.42589337    -2.17548919    -0.88202820
C     3.53526803    -2.90494070    -0.10394740
C     2.39775230    -2.30373013     0.40032720
C     2.16367026    -0.93146844     0.26250684
C     3.07394949    -0.18943044    -0.48960153
C     4.17225605    -0.81907652    -1.06377072
H     3.66030899    -3.94984351     0.14780222
H     1.64157461    -2.88098162     0.92087650
C    -1.84471025     1.75744199     1.24428421
C    -1.48138339     3.08732377     1.01782105
C    -3.18801036     1.38825240     1.12982451
C    -2.51008824     3.99686703     0.80766172
H    -0.45078324     3.40140064     1.05763403
C    -4.20203771     2.31366931     0.94431325
C    -3.85193414     3.64984356     0.81723688
H    -2.19280298     5.01644701     0.63124756
H    -5.21084057     1.94941049     0.80140286
Cl     5.82524542    -2.87313909    -1.63056486
Cl    -4.88249962     5.01863152     0.49016773
N     1.01619791    -0.47314903     0.92792825
H     0.58253552    -1.13537497     1.55174595
C     0.43630988     0.78107755     0.82087751
O     1.04582788     1.75491455     0.44756305
N    -0.84207092     0.77433617     1.34428037
H    -1.28896811    -0.10667979     1.54413492
H    -3.48495335     0.35730736     1.29230914
H     2.88698878     0.86107714    -0.64271776
Cl     5.40488858     0.05870795    -1.90961997
