70
 energy: -143.144076616457 gnorm: 0.110142169668 xtb: 6.6.1 (8d0f1dd)
O    -3.22617945    -1.02181377     3.18933445
H    -3.89003989    -1.44816820     3.73417318
H    -3.14338279    -1.47020529     2.34587228
O    -2.44249781     0.47087344    -1.17125850
H    -2.68147812     0.29548115    -2.08310539
H    -3.24942973     0.76434048    -0.74455480
O    -0.49588602    -0.71116132     3.71904365
H    -0.11470008    -1.55096912     3.45682474
H    -1.43030675    -0.80477548     3.52556844
O    -3.03355951    -2.18590137     0.83278037
H    -3.45699615    -1.52747263     0.27914513
H    -2.07961109    -2.21019223     0.73934145
O     0.84502367    -2.14972411    -3.33025051
H     1.39275607    -1.50910596    -3.78734655
H     1.51132937    -2.76716404    -3.02342361
O    -0.28333683    -1.57568993    -0.54473012
H    -0.96431986    -0.91567225    -0.40339097
H     0.00887703    -1.55348467    -1.45766902
O    -2.00755147    -2.82419545    -3.14608497
H    -1.07957651    -2.74677282    -3.37457053
H    -2.17324515    -3.67196854    -2.72995401
O    -4.40554400    -1.44813785    -2.93169335
H    -3.67265741    -2.06606116    -2.91204116
H    -4.85927529    -1.43203372    -3.77620806
O     1.27479298     0.84595632    -4.26353281
H     1.73348935     1.49829057    -3.73118305
H     0.39307201     1.17105677    -4.07322871
O    -4.99356348    -0.08840739    -0.26802315
H    -5.13903323    -0.72264082    -0.97224247
H    -5.79543490     0.04607451     0.24016495
O    -0.84449318     2.19571685    -2.92778942
Cl    -2.34003714     2.46301393    -3.69789511
H    -1.12984277     1.99335566    -2.02878332
O     1.50281720     4.73229899     1.82024914
Cl     1.57267387     5.39528774     3.38764527
H     2.22451676     4.10862202     1.67615239
O     1.14174836    -2.21142664     2.03847610
Cl     2.65428957    -2.93024072     1.72752719
H     0.79886250    -1.88840992     1.19664737
O     1.49292560     0.99487373     4.38699555
Cl     0.93612378     2.37221691     5.22009718
H     0.70346158     0.44734084     4.30014875
C     5.00729380    -0.80331739     0.22391328
C     4.83323842    -0.65516349     1.59448893
C     3.80340454     0.19077537     1.95989078
C     2.98633598     0.83131268     1.02233985
C     3.21802253     0.70682980    -0.34722972
C     4.23235551    -0.16018962    -0.73685439
H     5.39533580    -1.29436075     2.26255202
H     3.36441334     0.18414617     2.95147450
C    -1.52165169     2.47299690     1.04177901
C    -1.54909137     3.53964792     0.13990311
C    -2.72090183     2.05590802     1.62632424
C    -2.76122837     4.05724686    -0.29882773
H    -0.60945948     3.91834310    -0.22894360
C    -3.94007456     2.62930085     1.30398772
C    -3.91735610     3.60194410     0.31528579
H    -2.70158144     4.85498123    -1.02779777
H    -4.87726615     2.39684996     1.79228023
Cl     6.12961846    -2.05033465    -0.21259990
Cl    -5.43052999     4.38064729    -0.06752749
N     1.87427430     1.46507467     1.59783920
H     1.84406662     1.44183748     2.60496494
C     0.78682881     1.86720205     0.83851710
O     0.83182959     2.20449654    -0.32055221
N    -0.38746115     1.82344449     1.56472767
H    -0.48131082     1.36278280     2.45626067
H    -2.65529459     1.30630178     2.40812360
H     2.48977288     1.05253525    -1.06284493
Cl     4.26508595    -0.64499935    -2.40095698
