%nproc=8
%mem=4000MB
#opt=(noeigen,calcfc,ts,recalc=5,maxcyc=200) freq B3LYP/SVP em=GD3BJ

ts-1563.gjf

0 2
O  2.28464961282353  -4.02953064103452  -1.04955403446070
H  2.76543063412518  -4.55778879122205  -0.42945600871104
H  2.83143466998096  -3.29259642982484  -1.49859570067794
O  -1.28577409797825  -3.57580113375922  -1.08641013888022
Cl  -0.45668160523440  -3.84416089633092  -2.64293774599663
H  -0.88201521278126  -4.04719968051245  -0.36993092647008
O  1.67811362929309  -1.69451338201614  -3.16820132044829
H  1.98008743960272  -2.20203848555555  -3.92964953386086

