%nproc=8
%mem=4000MB
#opt=(noeigen,calcfc,ts,recalc=5,maxcyc=200) freq B3LYP/SVP em=GD3BJ

ts-1573.gjf

0 2
O  1.90974403459779  -3.87289949059085  -1.20853019400910
H  1.63488578251650  -3.00045517331243  -1.48357573257633
H  1.09995362651720  -4.09546029171680  -0.86260185475498
O  -1.48483893889757  -3.55940851543789  -1.16502313646521
Cl  -0.60446370012480  -4.08742889848404  -2.67921857593736
H  -0.94211290018989  -4.02351540379374  -0.50134674317135
O  1.73478387694608  -1.97421444809939  -3.56544051767997
H  1.89157476222416  -2.77729462285461  -4.06293309246441

