%nproc=8
%mem=4000MB
#opt=(noeigen,calcfc,ts,recalc=5,maxcyc=200) freq B3LYP/SVP em=GD3BJ

ts-1583.gjf

0 2
O  1.78673467670863  -3.58687228648980  -1.26492323773989
H  2.29370796614126  -3.10374039069132  -1.94548751217879
H  1.32630962966693  -4.44977558598796  -1.44385096457716
O  -1.17447799187965  -3.65746990461687  -1.29287084030523
Cl  -0.84627184224622  -4.30989472510877  -2.89853592953722
H  -0.50314957566634  -2.92862330287764  -1.26617457082669
O  1.83802001748415  -2.37004157738251  -3.76425230052069
H  1.86834074594165  -1.60385635792832  -4.34644398013530

