%nproc=8
%mem=4000MB
#opt=(noeigen,calcfc,ts,recalc=5,maxcyc=200) freq B3LYP/SVP em=GD3BJ

ts-1593.gjf

0 2
O  1.76066741083523  -3.13208227247051  -1.50218230862147
H  1.87558678026903  -2.88257272579964  -2.80685505770908
H  2.45284522084355  -3.50525149600544  -0.80710535838047
O  -0.63467425614664  -3.69008647656306  -1.74417845049916
Cl  -1.09541542500175  -4.54013610788173  -3.16974539407875
H  0.46849656901315  -3.52965910872256  -1.70001107869447
O  1.85063177429482  -2.69961585993828  -3.82006523038655
H  1.30182174935696  -3.21924220063866  -4.41121359428782

