%nproc=8
%mem=4000MB
#opt=(noeigen,calcfc,ts,recalc=5,maxcyc=200) freq B3LYP/SVP em=GD3BJ

ts-1613.gjf

0 2
O  1.89052812265896  -1.43416619882247  -0.77276078098922
H  1.70044767974263  -3.03125263762022  -4.34621031434785
H  1.17973071393918  -0.82277077913379  -0.78554970256909
O  -0.38220513171266  -4.24100594424551  -2.53181772761079
Cl  -1.30900678339691  -4.90845218205479  -3.50153721301232
H  2.60279167276278  -0.56822647536021  -0.74698280599225
O  1.34695081879443  -3.35268135536509  -5.50453632382452
H  1.61602497803121  -2.46662498408315  -5.87031429511490

