70
 energy: -143.121258930583 gnorm: 0.123131120146 xtb: 6.6.1 (8d0f1dd)
O     2.68696619    -2.94439859    -1.19642456
H     2.85437707    -3.11878045    -0.26857620
H     3.51029612    -2.52173958    -1.44707545
O    -1.40938799     0.90922022    -4.68154524
H    -0.79548928     0.84146655    -5.41494595
H    -1.01478631     1.53134348    -4.06787575
O    -1.22438777     4.02979978     2.76820588
H    -2.03652887     3.59647628     2.49988481
H    -1.11339772     4.66549696     2.05904534
O    -0.63382199     1.87526193     5.08231435
H     0.31309157     1.78344048     5.20174010
H    -0.70441451     2.73472009     4.66316423
O    -1.58675114    -1.02674334    -2.24127129
H    -1.05219773    -0.39531665    -1.75661453
H    -2.34262717    -0.64192128    -2.68837477
O     0.13849229    -1.89111532    -3.95304488
H     0.05323431    -2.73285866    -4.40419586
H    -0.65226479    -1.60388346    -3.49310950
O    -0.40126132    -3.66769280    -1.00733618
H     0.17777891    -3.30553172    -1.68030661
H    -1.29893835    -3.61027139    -1.33932613
O     0.14589786    -2.89241314     1.69280374
H    -0.06180193    -3.20018488     0.80879269
H    -0.48485595    -3.27845125     2.30309934
O     0.01058058     2.12078230    -2.86304327
H     0.78325923     1.60862137    -3.10798712
H    -0.27497292     1.72893977    -2.03584532
O     2.14221318     0.18178728    -2.86833660
H     1.63235876    -0.47108143    -2.38548131
H     2.38184807    -0.41507171    -3.57944332
O    -3.07717678     3.40828430    -4.79229200
Cl    -4.70275270     3.04776946    -4.43355225
H    -2.65737352     2.54196430    -4.73031401
O     1.10841714     2.78463769     2.06592097
Cl     1.32874109     3.66940479     0.62723783
H     0.44885861     3.31029031     2.53417195
O    -0.64969836    -0.46887766     4.02634624
Cl    -0.93404799    -1.52334736     5.33340506
H    -0.73280913     0.46011207     4.27263227
O     3.23432392     1.01543901     3.09859677
Cl     2.99934220     1.78071897     4.60202319
H     2.58653364     1.43055713     2.51667514
C     4.91213400    -0.67219734     0.19940336
C     4.43460512    -1.34509024     1.31739442
C     3.13789196    -1.08420501     1.71759800
C     2.30558992    -0.28342804     0.92834481
C     2.79707216     0.39890999    -0.18419988
C     4.15840082     0.30217000    -0.44844853
H     5.02681615    -2.00398863     1.93866246
H     2.69875386    -1.64262815     2.53693730
C    -2.41121426     1.34220679     1.33958698
C    -2.54722029     2.32921560     0.36020268
C    -3.55088743     1.01001361     2.07759109
C    -3.78043316     2.89775824     0.06760242
H    -1.79751829     2.61794024    -0.35879042
C    -4.75133399     1.68472613     1.92674850
C    -4.85924001     2.59049008     0.88174584
H    -3.90039231     3.63380007    -0.71673646
H    -5.65205453     1.50198582     2.49779980
Cl     6.53537035    -1.00347602    -0.31105414
Cl    -6.34961268     3.40326502     0.48073937
N     0.93938975    -0.26824426     1.24897190
H     0.65239804    -0.52071319     2.18152217
C    -0.11678364     0.37946222     0.62785318
O    -0.19964125     0.51999875    -0.56906726
N    -1.17756202     0.67517246     1.46185458
H    -1.15390636     0.11060740     2.29645318
H    -3.45810622     0.27204241     2.86766341
H     2.17454203     1.11146166    -0.70062162
Cl     4.97917126     1.21584736    -1.67191859
