70
 energy: -143.137676207053 gnorm: 0.100384791047 xtb: 6.6.1 (8d0f1dd)
O     0.89301242    -0.68979838     2.49278321
H     1.57620175    -1.16527585     2.01685094
H     0.25578329    -0.49650080     1.80291818
O    -2.93276451     0.60229880    -1.68146204
H    -3.05838326    -0.06335409    -1.00288635
H    -3.05065655     1.47610145    -1.30475464
O    -2.91345831    -2.74516750    -0.84032426
H    -2.16107305    -3.27901823    -0.57906109
H    -2.69292330    -2.35073352    -1.68597460
O    -0.19871341    -0.76448132    -0.06576828
H    -0.82529795    -0.44050223    -0.71520522
H     0.49684180    -1.13845222    -0.60953954
O    -2.65126977    -1.38580951     1.52383521
H    -3.26905650    -1.72600892     0.87426373
H    -1.81262047    -1.23438226     1.08443193
O     1.92287648    -1.59754831    -1.60120365
H     1.25100647    -1.40488503    -2.25756447
H     2.73612816    -1.10505101    -1.72533087
O    -0.39656404    -3.72934649    -0.36230550
H    -0.36312304    -3.01038940     0.27119260
H    -0.15660233    -4.53399513     0.10061730
O    -1.17902093     0.27825070     4.32986933
H    -2.02671220     0.22106390     3.88547382
H    -0.70875102    -0.47378992     3.96570229
O     2.59635028     0.82978530    -3.56967129
H     2.15729194     1.34629389    -2.89159663
H     3.25623040     0.37259258    -3.04539002
O    -0.19051683    -0.13709326    -2.94235869
H     0.21725487     0.65962091    -3.28631668
H    -1.12059202     0.03240724    -3.10225868
O    -4.89071195     0.13670945     0.35803159
Cl    -6.35205945     0.91026466     0.76697909
H    -4.70597071     0.39027588    -0.55419708
O    -0.29147658     2.78521402     3.34012317
Cl    -0.31193251     4.07673603     4.45040111
H    -0.34005847     1.91957871     3.76309173
O     2.50839388    -2.78965797     0.90367412
Cl     3.90896867    -3.75772407     0.85466308
H     1.90065161    -2.95568401     0.17314635
O    -2.85940160     1.30815294     1.92570446
Cl    -3.90565239     2.24419537     2.89024825
H    -3.24911719     0.44421686     1.74591492
C     5.63522057    -0.53429698     0.41099941
C     4.94587837    -0.68827056     1.60758704
C     3.73429577    -0.03175973     1.71126942
C     3.14939626     0.61302416     0.61626387
C     3.85264974     0.67090212    -0.58664100
C     5.17372903     0.24261069    -0.64761158
H     5.31611130    -1.16945613     2.50325601
H     3.32501011     0.14094099     2.70053945
C    -0.96542685     3.23359779    -0.11643052
C    -1.11765333     3.24164738    -1.50518527
C    -1.88392007     3.93818591     0.66701249
C    -2.20678625     3.87321419    -2.09219666
H    -0.37639292     2.72477941    -2.09318742
C    -3.05955120     4.40502725     0.10220020
C    -3.20212117     4.38955931    -1.27747986
H    -2.33264464     3.94147746    -3.16496644
H    -3.84513393     4.84802706     0.70003128
Cl     7.23173756    -1.20861826     0.45140698
Cl    -4.66975214     4.99465031    -2.00035197
N     2.04270030     1.44433548     0.84795436
H     1.60682409     1.17423348     1.71560151
C     1.24691077     2.08069162    -0.09150509
O     1.48922976     2.21940070    -1.26678190
N     0.13287951     2.62363180     0.51874382
H     0.01477274     2.50831761     1.51302822
H    -1.81271418     4.01435298     1.74708301
H     3.47434765     1.34407713    -1.33876325
Cl     6.17303720     0.79375845    -1.95258994
