%nproc=8
%mem=4000MB
#opt=(noeigen,calcfc,ts,recalc=5,maxcyc=200) freq B3LYP/SVP em=GD3BJ

ts-4291.gjf

1 2
O  -3.77469257116331  -0.35707473490430  4.50421037728984
H  -3.32616764128184  -1.21010186662292  4.32674170969600
C  2.64785400021507  -2.03651824750122  -0.08725287720351
C  2.88023389556122  -0.64287876874229  0.05358334882813
C  2.04042888065689  0.20693049028711  0.81497709986215
C  0.87843562283370  -0.41731609652202  1.44131557816452
C  0.46709292238723  -1.63632165953014  0.82943654430607
C  1.40021181332647  -2.41335522657911  0.29224285063572
H  3.68531696317748  -0.31019843224526  -0.56595173392874
H  2.19557430520142  1.26970514680935  0.66302181986819
C  -1.26800277483550  2.18252796788135  3.57714629764295
C  -2.50576938578819  2.60692363393721  3.16640614652858
C  -1.11552959721995  -0.12298680166490  2.87840362685337
C  -3.60721112053504  1.82895874981454  3.67679086160602
H  -2.79384571146468  3.53075201998950  2.65256765137688
C  -1.58409470954104  0.64951277556332  4.04565989793206
C  -3.12732414038858  0.63506468965347  4.12069692862096
H  -4.60403972073851  2.25409364881125  3.67562293007124
H  -1.02082142916125  0.23499631970012  4.89479083189051
Cl  3.19653519650103  -3.56323755963804  -0.98729109714147
N  0.10976818237675  0.10938669515985  2.45778537722430
C  0.18881263148402  1.91673170094455  1.96723749431626
O  0.38536216955031  1.98936462744924  0.81522423815269
N  -0.08470496794101  2.45945895994229  3.04300303985329
H  -1.87167894643061  -0.74647203363705  2.33494434826296
H  -0.55692245071500  -1.96146277120341  0.87442920952911
Cl  0.87120491019317  -4.03650251867635  -0.03551985338730

