%nproc=8
%mem=4000MB
#opt=(noeigen,calcfc,ts,recalc=5,maxcyc=200) freq B3LYP/SVP em=GD3BJ

ts-4321.gjf

1 2
O  -4.60222649562591  -0.37627108475602  3.93497002204724
H  -5.47962217626301  -0.38713865255445  4.39014946331926
C  2.12127479441203  -2.33871724492676  0.46183402923739
C  2.60487375375485  -1.54211894766574  1.48943863988415
C  1.74665789358166  -0.96416842032765  2.37952501610984
C  0.35656442494473  -1.16987114627125  1.97691858518020
C  -0.03856567513912  -2.31599730341513  1.24729805064320
C  0.82033473358035  -2.99447129657748  0.47589646122091
H  3.63767512358977  -1.27497224355122  1.63385751976799
H  2.15159792056800  -0.30227637600145  3.12600718747161
C  -2.28609693941415  1.94627229442254  2.66927033547034
C  -3.37663300442170  2.81156908739203  3.08741512136372
C  -1.99383837685751  -0.35291818064806  2.73878057104919
C  -4.33149069435061  2.16595094770494  3.91098249773915
H  -3.15198117116973  3.81560322502931  2.78392072541274
C  -2.48696527750445  0.69541893213050  3.58018557678252
C  -4.01715733541818  0.81823454677920  3.90350172672253
H  -5.33857270717636  2.54823257046773  4.09442051060431
H  -1.79861170075941  0.69565202894208  4.44183493761056
Cl  3.18816867301296  -3.02860779108553  -0.88417171917774
N  -0.67150127749141  -0.24055593558623  2.49957697106737
C  -0.40472244861757  1.23876893495139  1.74598371384536
O  0.52709792762139  1.15942972897567  0.99181573263923
N  -1.24743909729133  2.25765422912221  1.92762846858843
H  -2.59288195444583  -1.05715125224127  2.22936942203620
H  -1.07012076860492  -2.63209840722925  1.31706058573434
Cl  0.76077011982738  -4.86946224261969  0.12143697290539

