%nproc=8
%mem=4000MB
#opt=(noeigen,calcfc,ts,recalc=5,maxcyc=200) freq B3LYP/SVP em=GD3BJ

ts-2231.gjf

0 2
O  -2.01725843607540  -1.09346592200729  -4.64571151179673
H  -2.40790684053596  -1.85572626362802  -4.22410801512372
Cl  -0.15489266836342  -4.34137961551139  -4.45933209579753
C  0.83002703001036  0.34256710654005  2.83416204234548
C  0.12362163038562  1.41932116350298  2.27572574544143
C  -0.87051656323120  1.06714873408787  1.44713494231096
C  -0.81584657180050  -0.15528052224093  0.69060293796042
C  0.30817528845206  -1.09313852526300  0.90357374406644
C  1.15471137144668  -0.81846889882880  2.07085019841697
H  0.06505458629569  2.37212742270471  2.78389726734839
H  -1.69008283291323  1.70881964121858  1.13754289986400
C  -2.99414475635756  2.00706735458450  -1.94779097051100
C  -4.04949627183752  0.99121331126010  -2.26974389542837
C  -1.85019692248386  1.94895953794982  -2.79536436918133
C  -3.67414147995498  0.08866884960845  -3.44070247057575
H  -4.91940316049966  1.43741215593541  -1.96069883941372
C  -1.54162596360653  1.06738903376873  -3.72768537915161
C  -2.50169530935130  0.04607592660688  -3.94593794413845
H  -4.59905948988348  -0.32544415608010  -3.91560923012380
H  -0.56013469420698  0.71355201712598  -4.12935975768129
Cl  1.06727211158565  0.45006374564598  4.43600464465996
N  -1.80388116461564  -0.34848877416585  -0.20039567672697
C  -2.78683802133667  0.45128899789857  -0.60263165263827
O  -3.78214098038066  0.00295409789881  -1.26459112802839
N  -2.53004082795339  1.82944304717128  -0.70082750362133
H  -0.97823034325175  2.36360001516343  -2.29727693882754
H  0.60221781637059  -1.72218480196031  0.06647684525584
Cl  2.05851850549223  -2.06138357734895  2.62012794825580

