%nproc=8
%mem=4000MB
#opt=(noeigen,calcfc,ts,recalc=5,maxcyc=200) freq B3LYP/SVP em=GD3BJ

ts-2261.gjf

0 2
O  -1.03816683244921  -3.03061696362032  -4.63545961410087
H  -0.22889767272769  -4.50327090723850  -4.56063711798017
Cl  0.49438853731223  -5.51994026003465  -3.92545129102716
C  1.29059451903983  -0.15638039880418  3.63464268259825
C  0.47626445148625  1.03900180697205  3.94893851427882
C  0.18899447731282  1.89047421903948  2.90292649946215
C  0.20353515359151  1.51750207894662  1.53227164916110
C  0.61618893053009  0.15236911518321  1.27313313523143
C  1.28789201012070  -0.49847475913298  2.32404131748816
H  0.01153125051854  1.35539629693544  4.87310279597328
H  -0.31291963731758  2.82768286174540  3.14450217976044
C  -1.74425888251991  0.39229629819582  -2.36827914513145
C  -2.57294934941851  -0.84327142990686  -2.22027505414307
C  -1.16227326759319  0.35839395717491  -3.68699597294007
C  -2.66759236065300  -1.78778167563625  -3.34562427361367
H  -3.33069997581581  -0.75211112533213  -1.35093232918634
C  -0.96822790198251  -0.63385386504911  -4.59607866188102
C  -1.50267736443327  -1.97134224789407  -4.35011285270405
H  -3.48389670568674  -2.53595490168200  -3.34641496417120
H  -0.29119607114953  -0.46580510323223  -5.41477926259983
Cl  2.02436653558234  -1.23652072206061  4.83329010829669
N  -0.65898699096139  2.30424572851706  0.91050616930738
C  -1.44081924313281  1.75047551699982  -0.28554991226767
O  -2.57599817699354  1.76601951139973  0.06607748068582
N  -1.12051118130357  1.38837032920384  -1.66742768589245
H  -0.86382353036916  1.35804642159772  -3.74862090302054
H  0.36340088075257  -0.35615393378971  0.33433987642500
Cl  2.14525243388850  -1.80712926251918  1.93211844303786

