70
 energy: -143.153771042726 gnorm: 0.122207426767 xtb: 6.6.1 (8d0f1dd)
O    -2.92259546    -0.09770083     1.82399088
H    -3.61955905     0.55125824     1.93548929
H    -3.33388807    -0.96255455     1.87094961
O    -4.10610949    -1.62477938    -2.06712688
H    -4.85161398    -1.03341325    -2.18480422
H    -3.36830687    -1.01245474    -2.06049964
O    -0.38911508     0.10913482     3.09910489
H     0.05921102    -0.65778351     2.73830217
H    -1.25343175     0.16503586     2.68780193
O    -3.00233308    -2.69497370     2.45496264
H    -2.91693328    -2.87587351     1.51724141
H    -2.27359017    -3.04938426     2.96747156
O     0.61753056    -0.77350266    -1.71978535
H    -0.10134595    -0.44618566    -1.17626044
H     0.86201203     0.01964006    -2.19988070
O     1.07379917    -3.06423635    -0.24512977
H     1.24457972    -2.25493098    -0.73010070
H     0.61983967    -3.68405294    -0.81879137
O    -1.07324701    -2.62081255    -2.82893767
H    -1.13663771    -2.49166965    -3.77690453
H    -0.41698564    -1.95474201    -2.61678291
O    -2.40553777    -2.59963394    -0.27789995
H    -3.16295191    -2.89276382    -0.78754381
H    -1.59238018    -2.70814642    -0.77422271
O    -1.49631528     0.05283718    -0.26897754
H    -1.87142901    -0.74219541     0.11384286
H    -1.99202672     0.17474318    -1.08060979
O    -2.98034184     1.00717249    -2.18267031
H    -2.97588904     1.86460881    -1.75357652
H    -2.58562841     1.22918710    -3.02780291
O    -0.45010887     1.54298661    -3.46229354
Cl     1.11956254     1.39321723    -4.10639216
H    -0.42969806     1.86226575    -2.55222177
O     0.94400821     3.21190792     3.23727850
Cl     0.20994895     4.68369499     2.79437388
H     0.52689754     2.81482510     4.01118485
O     0.28953360    -2.41352730     2.18252539
Cl     0.46516178    -3.70320939     3.28117851
H     0.59612087    -2.62515465     1.29269156
O     0.62028983     0.55794718     5.65397409
Cl     2.19664941     0.36176587     5.03934884
H     0.17306585     0.33346252     4.82924055
C     4.76581149    -0.45005936    -0.56402920
C     4.24408299    -0.74155800     0.69038317
C     3.00956550    -0.22398637     1.03356689
C     2.40551009     0.75083634     0.23248726
C     3.00652172     1.19513693    -0.94491558
C     4.19945558     0.58083297    -1.30815231
H     4.63161083    -1.46160092     1.39904053
H     2.47988103    -0.49715150     1.93955290
C    -1.82599835     3.24617051     0.72310501
C    -1.85418563     4.13639820    -0.35326741
C    -2.89281829     3.12909598     1.61867516
C    -3.02161898     4.87421786    -0.50290381
H    -1.02260388     4.24818477    -1.03027669
C    -4.07108974     3.82233494     1.39471435
C    -4.11768831     4.70931282     0.32926547
H    -3.07044402     5.57598097    -1.32538777
H    -4.91289100     3.67236453     2.05779095
Cl     6.32863551    -1.07323796    -0.98168692
Cl    -5.51768920     5.65696853    -0.10034605
N     1.25770195     1.35020955     0.77361865
H     0.96088263     1.00048274     1.67102835
C     0.26599739     2.02476131     0.07912880
O     0.43947962     2.40728372    -1.05348535
N    -0.79691375     2.30507376     0.91572801
H    -1.00167233     1.54400934     1.54398186
H    -2.81033959     2.38143685     2.40074111
H     2.58652582     1.99616144    -1.53136941
Cl     5.01475489     1.10746806    -2.74456858
