%nproc=8
%mem=4000MB
#opt=(noeigen,calcfc,ts,recalc=5,maxcyc=200) freq B3LYP/SVP em=GD3BJ

ts-509.gjf

0 2
O  -1.50070240041242  6.73437729958628  1.37352678746920
Cl  -0.81276542769238  6.27306985723566  -0.15028614028469
H  -1.47603975632763  6.17518139637967  2.25473279466473
O  -1.19357441190475  5.26540285454824  3.75446976773537
H  -1.59255972773466  4.33310703345780  3.63349437128895

