70
 energy: -143.148747602633 gnorm: 0.107829316032 xtb: 6.6.1 (8d0f1dd)
O     0.53746179    -2.13425170     3.16860260
H     0.43663196    -1.74415645     2.29854682
H     1.00982035    -2.92310197     2.89669945
O    -2.02379299     1.26794499     1.36822708
H    -1.42888440     1.25728415     2.12009736
H    -2.78860194     0.71092329     1.52357238
O    -1.79515631    -2.58118992    -0.42162315
H    -1.31394381    -1.84610553    -0.80558159
H    -1.54434645    -3.39773886    -0.85714652
O     0.40970509    -0.61986842     1.02416650
H     0.13933268     0.29150569     1.14920635
H     0.11525455    -0.73955049     0.11955965
O    -2.00723670    -1.22673339     3.44512019
H    -2.80410765    -1.75990211     3.45330507
H    -1.25369495    -1.81905209     3.41920708
O     2.48548021    -0.91039920    -2.25541452
H     2.51263198    -0.64550441    -3.17651794
H     2.52883447    -0.16168417    -1.65801543
O    -0.10389266    -0.84886310    -1.48169724
H     0.81739827    -0.82808933    -1.74651586
H    -0.51437178    -0.25939424    -2.11681293
O     0.11891972     0.06723580     4.69360996
H    -0.03157075    -0.21658768     5.59701188
H     0.47423987    -0.66536665     4.18727238
O     0.38281837     1.21810735    -3.55630661
H     0.73119107     1.88248721    -2.95916804
H    -0.32838536     1.61697138    -4.06072167
O    -1.77739809     1.40300029    -1.62903730
H    -2.63452557     1.31631829    -2.04993758
H    -1.90675138     1.30360591    -0.68419510
O    -3.60443739    -0.96507587     0.96567546
Cl    -4.83809448    -1.12970773    -0.19714384
H    -2.87751831    -1.54817529     0.71633606
O     0.25104664     2.11089692     3.19570131
Cl     1.42953295     3.08590477     3.94516404
H     0.02575254     1.44492700     3.85624179
O     2.33542504    -2.63477598     0.65974909
Cl     1.40842559    -3.85488660    -0.08400215
H     1.82260417    -1.82696420     0.53710725
O    -4.04233808     0.69191365     4.36820032
Cl    -3.44559153     2.19876880     3.84432827
H    -3.38221539     0.07572363     4.02888340
C     4.83064283    -0.57536849     0.73355325
C     3.98991777    -0.48241704     1.83594342
C     2.92898349     0.40220433     1.87534527
C     2.71745239     1.20177170     0.74714423
C     3.63234610     1.19795394    -0.30540056
C     4.76320381     0.39046480    -0.26636455
H     4.14090230    -1.26326193     2.56964629
H     2.24878698     0.55335708     2.70629719
C    -0.91452510     4.08464323    -0.94009250
C    -0.59265239     4.30506931    -2.28161691
C    -2.19418515     4.33613464    -0.43702256
C    -1.55684068     4.61522577    -3.23230792
H     0.40725401     4.25580316    -2.68177444
C    -3.16841795     4.46280666    -1.41369393
C    -2.85690589     4.50444539    -2.76473388
H    -1.38830866     4.67603944    -4.29965690
H    -4.22276906     4.45309991    -1.17071131
Cl     6.03236314    -1.81737901     0.86951958
Cl    -4.15766936     4.57773432    -3.92458862
N     1.58159972     2.02592908     0.73538104
H     1.20039805     2.35660965     1.60778599
C     1.07869036     2.72299467    -0.35181534
O     1.57712027     2.72691005    -1.45217283
N    -0.02639188     3.48551223    -0.02683282
H    -0.44971675     3.31263194     0.87136343
H    -2.48420106     4.29475777     0.60777539
H     3.51784998     1.87561734    -1.13583900
Cl     5.92856906     0.63997872    -1.52533876
