%nproc=8
%mem=4000MB
#opt=(noeigen,calcfc,ts,recalc=5,maxcyc=200) freq B3LYP/SVP em=GD3BJ

ts-4353.gjf

1 1
O  -4.80432828063589  -0.11301192241296  4.23456050015596
H  -5.33715814108954  -0.86701090286807  4.00328832971770
C  2.09411607471920  -2.84658431806722  1.06522102618260
C  2.52142865176541  -1.54415913980048  1.65070135276849
C  1.57638854718300  -0.78648275953051  2.22986992494103
C  0.15877703803040  -1.22213454948423  2.19725447489444
C  -0.16663222777302  -2.34189693872227  1.39279784748438
C  0.78883138428365  -3.14728390697755  0.82264397477246
H  3.55295932220692  -1.27291686212237  1.55964595273120
H  1.72879960047639  0.05718973857597  2.87278149661333
C  -2.53601057484097  2.02186491914172  2.47464576584731
C  -3.77338001910673  2.50939505405064  2.28868961994600
C  -1.94593742730791  -0.49867696123052  3.57374972502011
C  -4.82817557437813  1.76467520805619  2.64435543706816
H  -3.91250029435299  3.51997596862561  1.97074027034647
C  -2.67824565555100  0.78159003495286  3.52631902034855
C  -4.22922842019562  0.40779964345858  3.05118278180161
H  -5.87587249820744  1.97396204503573  2.76966279589661
H  -2.97087673063314  1.24488107697659  4.45772776956574
Cl  3.09231926736343  -4.10134240400229  1.27694990777226
Cl  -4.18080847795492  -0.77267785146616  1.70825051386003
N  -0.88559819858909  -0.82801473773624  2.93138225058285
C  -0.43509136086769  1.97373696527542  1.64632459334751
O  0.61136138173467  1.48415611273744  1.57464220095433
N  -1.52311723078644  2.57265848720609  1.65703069454872
H  -1.98846868089608  -1.01111473325956  4.56039717783158
H  -1.24505601416935  -2.47452618381086  1.33026537379792
Cl  -0.09051292218511  -4.97881561748303  0.29209670684363

