%nproc=8
%mem=4000MB
#opt=(noeigen,calcfc,ts,recalc=5,maxcyc=200) freq B3LYP/SVP em=GD3BJ

ts-4383.gjf

1 1
O  -4.64205823361560  0.42101569880207  4.08339642931019
H  -5.43461713690632  -0.14782052760485  4.10032504041395
C  1.53332320779631  -3.71115547849355  2.38464744595934
C  1.78592802994197  -2.44593605476527  3.03522182061982
C  0.88868464354830  -1.40508784524004  3.06271917645178
C  -0.35248335707027  -1.32646220933456  2.33689317134404
C  -0.39517741601310  -2.38258386439579  1.43512537543767
C  0.38948417302720  -3.58089898298779  1.44783560755774
H  2.73705546452034  -2.10540574072891  3.38612318124741
H  1.04249906342282  -0.52593444752413  3.71428139867360
C  -2.65752435490334  1.91817613276258  1.51396175549023
C  -3.94380601217013  1.93544798953447  1.02937435772210
C  -1.98358438910593  0.02917312997781  3.31162493503426
C  -4.87080591621954  1.34084826749363  1.86069646009066
H  -4.02586513621996  2.39963710037556  0.09079335171119
C  -2.78117612877883  1.21534260738634  2.89989719437976
C  -4.23228289408786  0.86570299760044  2.92181635664079
H  -5.92333836280482  1.19586468502336  1.62241715670372
H  -2.56612225719911  1.98941686652110  3.68204130414629
Cl  2.88238406728637  -4.94318088540786  2.53781974247832
Cl  -3.71389418083608  -1.66237663111619  2.20097274807403
N  -1.10547049052761  -0.13808687356877  2.45283318777955
C  -0.31450624727483  2.68619897934626  1.57714226013749
O  0.83562182406583  2.69255382133635  1.71674569235888
N  -1.52599788249420  2.68414600836092  1.51955808750251
H  -2.08393517028328  -0.63641438980516  4.14948215296118
H  -1.23711557544881  -2.34534049837048  0.74590174345697
Cl  -0.02631444876141  -4.76370991739986  0.25246379461112

