%nproc=8
%mem=4000MB
#opt=(noeigen,calcfc,ts,recalc=5,maxcyc=200) freq B3LYP/SVP em=GD3BJ

ts-4692.gjf

0 2
H  0.07810216087034  -3.39343094304203  -1.15550442792132
O  0.08851661798530  -1.18733642400159  -3.60761996481286
Cl  0.79899602336318  -6.35629288584805  -0.04061914708080
H  0.45510079846333  -0.29475971585293  -3.60265298374160
C  -1.38672064719134  -3.74563105183020  -2.86234868504851
C  -2.17573405927793  -4.73815152626609  -3.45455256231623
C  -0.32610423022156  -4.25890670344208  -1.71286944489622
C  -2.33957514145506  -6.02709556308790  -3.09636821915799
H  -2.67538923595170  -4.34925991194218  -4.36304804120074
C  -0.97594944415110  -5.46504541117511  -1.05626398510409
C  -1.78668318710223  -6.36481359641192  -1.85015129760673
H  -2.94725043034760  -6.63383750995692  -3.74139842583152
H  -1.07131717904258  -5.34112359631279  0.02743908500709
Cl  -2.44575498448617  -7.80402450542890  -1.32565230733229
C  -1.24931223558283  -1.18030024625011  -3.35861384319631
O  -2.00020708078488  -0.32231426602162  -3.64045691106093
N  -1.67214822698809  -2.50351711869451  -3.05122247707503
H  0.24550339673196  -4.83447616950059  -2.34125181580974

