%nproc=8
%mem=4000MB
#opt=(noeigen,calcfc,ts,recalc=5,maxcyc=200) freq B3LYP/SVP em=GD3BJ

ts-84.gjf

0 1
O  0.42673225124475  2.90610275884236  5.03487597874002
Cl  -0.18931990101475  3.59892776044967  3.48317343197642
H  -0.15666778096409  3.00465723682915  5.75816125036140
C  -4.56870531916595  -1.56613669875272  3.21202948126709
C  -4.00570606610015  -0.96639328047915  4.34854281100345
C  -2.69436575450379  -0.42719215044008  4.31553489835385
C  -2.00000896756357  -0.52993665407511  3.13035541826103
C  -2.52676075806062  -1.11187252781602  1.99188240625243
C  -3.80858604391765  -1.62278660629226  2.08274552244085
H  -4.62719331086673  -1.04909303809287  5.29401949409563
H  -2.22966125526398  -0.21617288907391  5.24962236977887
C  2.03496403562236  -2.13954427414959  1.49447556757704
C  3.34361855625193  -1.85134593997192  1.21956374482668
C  1.56083190379207  -3.44740042483925  1.19321220003742
C  4.26391359509983  -2.86870680423563  1.07889212991070
H  3.87996078684602  -0.93239665035129  1.45050529481429
C  2.36382292358192  -4.42402132757941  0.76667060865799
C  3.74796159131795  -4.18116811703615  0.84276991405429
H  5.33927559818347  -2.67342714838294  1.10573224861379
H  2.09300752782981  -5.40893651569162  0.59839787565400
Cl  -6.16768234926113  -2.31358086110647  3.48294162449011
Cl  4.74939000222158  -5.53329573460178  0.97432669025646
N  -0.62807719549089  -0.17062485084658  3.20539620277663
H  -0.42365793380716  0.74141766576880  3.01694442480122
C  0.09043978714420  -1.35343484221256  2.83410563225131
O  -0.28859563770126  -2.43463856015704  3.25636593790374
N  1.16241833679538  -1.12455760640283  1.96758536819424
H  1.66364416420573  -0.23538360802397  2.01099610835372
H  0.49812906315864  -3.60991382253162  1.33821319822436
H  -1.96269195368302  -1.16404607301467  1.09389786796270
Cl  -4.25854439460127  -2.78578532484828  0.77303892270681

