%nproc=8
%mem=4000MB
#opt=(noeigen,calcfc,ts,recalc=5,maxcyc=200) freq B3LYP/SVP em=GD3BJ

ts-94.gjf

0 1
O  0.36085180112649  2.56114967969866  4.39741962776330
Cl  -0.22240666330919  4.04563782853463  3.58330824586165
H  0.68680139090226  3.05237426582666  5.23066127209256
C  -4.44634346499539  -1.50313542105393  3.40291197443135
C  -4.10777588302553  -0.54733251441176  4.36493526894411
C  -2.88637109547973  0.06850040197498  4.19674091343199
C  -2.11343024384518  -0.27048255924429  3.06758514213170
C  -2.64179364616995  -1.02606476388510  1.99778613198805
C  -3.78800606280840  -1.69454840979658  2.21740506164925
H  -4.74611866893082  -0.32004475419484  5.22945131044901
H  -2.54881575785540  0.66182178486479  5.02673240935921
C  1.85587688280049  -2.16692812831102  1.68326152766782
C  3.26149816460910  -1.97439987197484  1.70396554094623
C  1.43802660580305  -3.50138890497418  1.65122276093466
C  4.05309969929684  -3.06001769533235  1.43055675762534
H  3.70974911345496  -1.03133643170045  1.98781787537847
C  2.26109008241458  -4.60901696731024  1.47287093699303
C  3.63394221245264  -4.36077511755562  1.09641530991020
H  5.09633068609602  -2.83575291999322  1.50738828880772
H  1.85047538490410  -5.61764792936850  1.46898802575105
Cl  -5.73571386045150  -2.63797794583654  3.80918683653079
Cl  4.81660616998554  -5.37062255497717  0.32365276425646
N  -0.74475430225423  -0.06171307826481  2.95995918991778
H  -0.32741631902962  0.80827604201904  2.76253882068361
C  -0.00298500846837  -1.15669861817659  2.79156807333688
O  -0.06652127616232  -2.20632373089303  3.35668818100759
N  1.00896234929791  -1.04908142878569  1.90114887296686
H  1.41035741448327  -0.15185188695678  1.74947809031714
H  0.37294460127015  -3.65241953656718  1.68874483268737
H  -1.94030031716973  -1.27246426800733  1.22016136325686
Cl  -4.48951280444251  -2.54802963529245  0.88896248740505

