70
 energy: -143.135584221548 gnorm: 0.109610802451 xtb: 6.6.1 (8d0f1dd)
O     1.89921886    -5.04590628     0.66026403
H     2.24709310    -5.32390797     1.50940276
H     2.65637817    -4.71113333     0.17655386
O    -1.62799819     0.05537046    -2.38862267
H    -1.14969780     0.72018221    -1.89003179
H    -2.44529846    -0.09115201    -1.90915473
O    -0.44107607     0.82351372     3.68039830
H    -0.98711578     0.36371957     3.04026661
H     0.38146990     0.33799721     3.59655205
O    -1.65370598    -0.35214622     1.24601190
H    -2.12080606     0.24046305     0.65442865
H    -1.18634305    -1.06067782     0.80003732
O     0.63899185    -2.42713481    -2.44204516
H     1.18271339    -3.12682554    -2.80829503
H     0.91326233    -1.63326103    -2.90451487
O    -1.75779983    -2.13142692    -3.84247263
H    -1.60794505    -1.34088231    -4.36393285
H    -0.97634313    -2.23797747    -3.29720952
O    -0.02071050    -2.53562269     0.35916134
H     0.00243261    -2.35419211    -0.58205319
H     0.56010416    -3.29662009     0.41278843
O    -4.19537493    -1.82546863    -1.82523413
H    -3.80197819    -2.69326491    -1.71796442
H    -3.74775893    -1.44907236    -2.58503823
O     1.04951579     0.20728981    -3.95283629
H     1.24560450     0.77435767    -3.20495806
H     0.10303902     0.06034116    -3.99671839
O    -3.70234799     0.52751440    -0.57428909
H    -4.23211794    -0.23598053    -0.81041959
H    -4.22272762     1.29627993    -0.81417009
O    -3.12043784     1.62157951    -4.14484260
Cl    -3.83810104     2.81737963    -3.16699608
H    -2.65540148     1.17230764    -3.42896386
O     2.12285675     2.69063844     3.82725994
Cl     3.09731465     1.46987206     4.50646972
H     1.35428811     2.72666094     4.40914630
O     1.40499839    -0.79857042     2.00769058
Cl     2.62591588    -1.50293800     2.96392831
H     0.85839847    -1.50220059     1.63793492
O    -0.46813860     2.89108577     5.66508104
Cl    -1.07546030     4.19275954     4.74967590
H    -0.71019920     2.12976949     5.12434796
C     5.16624326    -0.52170603    -0.08427668
C     5.22877535     0.32671410     1.01435678
C     4.06665863     1.00734513     1.32405835
C     2.88260911     0.98231182     0.57955117
C     2.84474101     0.08749835    -0.48945321
C     3.99405800    -0.61706622    -0.82865920
H     6.16054352     0.58529177     1.49992919
H     4.16210185     1.79134888     2.06717624
C    -1.65514865     2.84723669     0.75159047
C    -1.88893188     3.76752586    -0.27324649
C    -2.72894691     2.37874477     1.51404036
C    -3.17580609     4.20649215    -0.55773366
H    -1.11758378     4.14219300    -0.92670858
C    -3.99771432     2.81991685     1.17542726
C    -4.26412323     3.66857021     0.11105122
H    -3.38776848     5.00533334    -1.25648965
H    -4.84015228     2.37036399     1.68433942
Cl     6.57395204    -1.21613235    -0.82003246
Cl    -5.89180235     4.21792143    -0.19142836
N     1.88062321     1.89762315     0.93699268
H     1.94286727     2.11287418     1.91961541
C     0.66360413     2.06258569     0.29475738
O     0.66106396     1.88671833    -0.90035708
N    -0.38602458     2.37519481     1.13666513
H    -0.44493866     1.88446256     2.01504948
H    -2.67021175     1.54878519     2.21056127
H     1.89920416    -0.19547881    -0.92286865
Cl     3.77758371    -1.54626623    -2.27609674
