70
 energy: -143.146241256501 gnorm: 0.105348912379 xtb: 6.6.1 (8d0f1dd)
O    -4.00491190    -1.26394901     2.91612707
H    -4.54821249    -1.69638887     3.57730653
H    -3.73901695    -2.05528057     2.44449911
O    -1.83662129    -0.78851219    -0.95287234
H    -2.38328322    -0.07498284    -1.28660187
H    -1.96130593    -0.79854232    -0.00224559
O    -1.53695890    -0.25935993     3.57570223
H    -0.96042510    -1.00124641     3.38451687
H    -2.46467196    -0.50055017     3.55302835
O    -2.81065412    -3.08647266     1.31190785
H    -3.22208136    -3.49367938     0.54754584
H    -1.90582470    -2.93411915     1.03368027
O     0.67906548    -3.14319168    -2.82443630
H     0.53889493    -2.19515375    -2.79417912
H     0.84752222    -3.24929997    -3.76236032
O     0.47310874    -2.30033212    -0.05992005
H     0.94233278    -1.53023592    -0.38567859
H     0.57538752    -3.02653298    -0.67758567
O    -2.12616652    -3.44411085    -1.96498872
H    -1.19714103    -3.66967369    -2.03827233
H    -2.04890907    -2.54606972    -1.63804530
O    -4.60361977    -4.09103852    -0.48595293
H    -5.35588438    -3.59736891    -0.81720276
H    -4.04390767    -4.13277300    -1.26333129
O     0.35441700    -0.25834308    -2.62869168
H    -0.50560546    -0.54511617    -2.31650398
H     0.22949892     0.68615607    -2.73664834
O    -3.20168849     1.39883522    -2.32196895
H    -2.55894699     1.99376401    -2.71220149
H    -3.91123490     1.22579097    -2.94320792
O    -0.91455071     3.20611985    -3.52646712
Cl    -0.60418349     4.88086812    -3.51921197
H    -0.61739620     2.87850036    -2.66917424
O     3.91484127     3.06484362     2.70519462
Cl     2.88350638     3.26426163     1.36439432
H     3.80756274     2.15980683     3.02140154
O     0.17615008    -2.21349200     2.77754564
Cl     0.93356233    -3.49800730     3.60065619
H     0.34562155    -2.15627599     1.82960478
O     0.83900558     0.96238352     4.07361569
Cl     1.75365678     1.43555526     5.43033325
H    -0.05850002     0.64165603     4.22263128
C     5.02759235     0.46189868     0.09548577
C     4.53544402     0.08346232     1.33858610
C     3.18642891     0.03825776     1.63490297
C     2.23876902     0.43268642     0.68450433
C     2.70045262     0.71964593    -0.59978456
C     4.06333700     0.72353104    -0.87352267
H     5.17502039    -0.04245384     2.20225391
H     2.93869655    -0.11494790     2.67948527
C    -2.21642703     2.26394801     0.69913336
C    -1.89867551     3.56207512     0.29197577
C    -3.52598723     1.78235486     0.61560409
C    -2.93873399     4.40386024    -0.08131444
H    -0.86956149     3.88332576     0.28257923
C    -4.51077334     2.60634883     0.09570749
C    -4.23902468     3.93632650    -0.18958961
H    -2.74430051     5.44009531    -0.32574772
H    -5.48719203     2.19769148    -0.12878463
Cl     6.72771617     0.67036826    -0.17158713
Cl    -5.64786288     4.92341893    -0.47845503
N     0.87835458     0.52335385     1.01705036
H     0.63446235     0.44467965     1.99177168
C    -0.03743922     1.26670172     0.28933493
O     0.07382682     1.80477312    -0.78645933
N    -1.21355407     1.32666341     1.01142342
H    -1.25742319     0.81054154     1.87602836
H    -3.78146964     0.75132167     0.83724178
H     2.11021966     1.01495345    -1.45206588
Cl     4.55706534     1.01026997    -2.51039846
