70
 energy: -143.114798977847 gnorm: 0.106476935121 xtb: 6.6.1 (8d0f1dd)
O    -0.42669224    -3.39202416     1.38321907
H    -1.25537653    -3.54721420     0.92656119
H    -0.62024118    -3.45366133     2.32027742
O    -0.10786575     1.80404990    -4.28038945
H     0.22187128     0.90388197    -4.29799590
H     0.50147231     2.38980588    -3.82769182
O    -1.65625181     2.20163132     5.07730252
H    -1.99592236     1.31779942     4.92629358
H    -1.95942497     2.40911852     5.96295113
O     1.18386818    -0.03943178     3.04932593
H     0.50965326     0.62859301     3.18539978
H     1.95997290     0.24353264     3.53608157
O    -1.48481737    -0.53432699    -2.81243072
H    -1.05036816    -0.88993200    -3.58969397
H    -0.82961514     0.12989382    -2.59139035
O     0.35843851    -3.46202810    -2.00964459
H    -0.19848404    -3.29179115    -1.24793950
H     0.51234683    -4.40752436    -2.05073611
O    -2.45359564    -3.30205447    -0.86262554
H    -2.67471206    -2.40857250    -0.59404606
H    -2.32088762    -3.30021025    -1.81221691
O    -3.85847030    -1.04730298    -1.46504687
H    -4.45221725    -1.48390035    -2.07838648
H    -3.35532612    -0.39249916    -1.95229876
O     1.60138923     2.94846939    -2.51014925
H     2.12067386     3.72796594    -2.30504635
H     1.07675746     2.80125181    -1.72120927
O     1.12950568    -0.78630814    -3.35211296
H     0.66986045    -1.53747325    -2.97288271
H     1.96633545    -0.69424708    -2.89322410
O    -2.34050272     3.14223903    -3.60957967
Cl    -2.57811032     3.03136749    -1.92660244
H    -1.63982352     2.52476302    -3.85115459
O     3.49290441     4.18928398    -0.17473357
Cl     4.06089826     5.65214300     0.48752854
H     3.58847708     3.59042121     0.57547730
O    -0.54082459    -2.52279544     3.78682377
Cl    -1.94057101    -1.55751760     3.88738446
H     0.16819308    -2.05117213     4.24009137
O     0.68054908     3.83735452     4.25110864
Cl     1.60519433     3.84039490     2.82066020
H     0.13237904     3.04680899     4.32277075
C     4.93318750    -0.66784471    -0.37295777
C     4.38761105    -1.79628686     0.22678164
C     3.01977997    -1.97877993     0.30042566
C     2.12331801    -0.99226366    -0.12387681
C     2.70597710     0.15079437    -0.67052329
C     4.07732912     0.37175930    -0.72501952
H     5.04582664    -2.57664741     0.58542441
H     2.55131746    -2.80216688     0.82822521
C    -2.33182964     0.26590893     1.27427748
C    -2.40031579     1.65971241     1.34135199
C    -3.50842954    -0.46968063     1.44273470
C    -3.61165312     2.31554564     1.52083505
H    -1.44036493     2.14138639     1.24727465
C    -4.70271028     0.18011087     1.70830360
C    -4.76448927     1.56577022     1.69367308
H    -3.62940158     3.39757945     1.53576962
H    -5.59652580    -0.42528238     1.78167853
Cl     6.65584748    -0.48143988    -0.42685167
Cl    -6.27570544     2.39430121     1.96271216
N     0.73165904    -1.08626130     0.03099365
H     0.51004892    -1.99569702     0.40458487
C    -0.14519686    -0.02726474     0.20553384
O    -0.04490551     1.01485159    -0.39710166
N    -1.14821163    -0.46241737     1.04984244
H    -0.97323035    -1.28202272     1.60973232
H    -3.47650417    -1.52945330     1.21189552
H     2.03323969     0.89117805    -1.07204719
Cl     4.75395211     1.85920024    -1.30385477
