%nproc=8
%mem=4000MB
#opt=(noeigen,calcfc,ts,recalc=5,maxcyc=200) freq B3LYP/SVP em=GD3BJ

ts-4998.gjf

0 2
O  4.02734574937893  -1.03299499721311  -0.25450556515172
H  3.96209417090322  -1.12375359296680  -1.15627822183430
H  3.21130859212544  -1.19224386469301  0.10099907324388
O  3.15361305606238  -1.63281477991188  3.33251176527222
H  3.47374152487449  -1.67563822289408  2.40827708342238
O  -3.94539369611033  -1.11946109935359  -2.42250599170873
H  -3.07396518189913  -1.51970865290555  -2.68006821532261
Cl  -4.02062995299326  1.01458276551838  -4.79461414818043
Cl  -1.18235161821500  -1.12632627903153  -1.98216062462132
C  -3.10413069499286  0.97374473630083  -3.42295364459254
C  -3.53671445167873  0.24027401438405  -2.22652822561122
C  -2.33208196989909  0.17385080608781  -1.26915270923240
C  -1.52026365704682  1.38383354688311  -1.06124468598811
C  -1.48050086969746  2.32693686350126  -2.08089708907183
C  -2.11928987059406  1.90634666522208  -3.29026969630813
H  -4.29629921232143  0.61854983683418  -1.57627530303978
H  -2.46304964006769  -0.27129341742217  -0.26577906412281
C  0.78504789495078  2.90237699412546  2.74132759274463
C  0.61252735222045  2.14882775996467  3.97464418577990
C  2.13826099416241  3.13871854109060  2.40810457482758
C  1.69463727732222  1.64623830210990  4.73380685472923
H  -0.44963482469902  1.95631641710762  4.21970464607372
C  3.13028257918584  2.36008440961132  3.03649984571524
C  2.96853233031319  1.67654097175945  4.23158714081703
H  1.56216127558837  1.67281071669257  5.74256939253772
Cl  4.67699580735271  2.15678331468344  2.27368889041039
Cl  3.98117522299322  0.80956724597262  5.17390241588186
N  -1.15477377776286  1.53295053920989  0.19801804224840
C  -0.54213505583925  2.76145754742451  0.57745644339156
O  -0.46199392326801  3.69516648321857  -0.18903378138459
N  -0.14282039822284  2.79663186225069  1.86331327661057
H  2.50027290099074  3.73971964056348  1.58176387856994
H  -0.82860825503000  3.20452168396141  -2.18856673093124
Cl  -1.79257228754779  2.70372994958110  -4.60089534257186

