%nproc=8
%mem=4000MB
#opt=(noeigen,calcfc,ts,recalc=5,maxcyc=200) freq B3LYP/SVP em=GD3BJ

ts-5008.gjf

0 2
O  3.59067271088441  -0.53231564749914  0.11014075622963
H  3.33435204823644  -0.08319215008562  0.98619550247793
H  4.49286279572293  -0.65887975879110  0.30501722177969
O  3.68276304002256  -1.19903027225994  2.77827675403660
H  3.68628491918450  -1.63731077382574  3.63844610909895
O  -3.69929890601741  -1.25626346960549  -2.32075550076754
H  -4.57312217878636  -1.32242379555761  -1.87580754225306
Cl  -4.23600874226982  0.66849895176060  -4.35511408826604
Cl  -0.71373729508674  -0.80139418273991  -1.91507334389938
C  -3.06903677203912  0.92930482518271  -3.19294700788010
C  -3.36688323833692  0.10054287969476  -2.03900743561911
C  -2.18361426360837  -0.04499046765086  -1.03410256532162
C  -1.42802148992443  1.23906144946654  -0.94290283871486
C  -1.13066405599846  1.84923766922956  -2.28031298506920
C  -2.02962876684511  1.76621977765402  -3.44238927135082
H  -4.21010034904007  0.61277468898939  -1.57528219475049
H  -2.50563288525996  -0.54872895456986  -0.12615343375223
C  0.77667923445147  2.77976193145564  2.61497863366662
C  0.63406054046600  2.31750374157306  3.99736627533823
C  2.15010189627664  2.68101172333651  2.18304357650579
C  1.63792463187625  1.94766416131947  4.90693225447743
H  -0.31085174868253  2.52096459122602  4.49462683359666
C  3.19134574340808  2.35134426607357  3.05196087456105
C  2.91476167914001  1.92993870156504  4.41919746386627
H  1.23678177496625  2.11601269060053  5.96961853880872
Cl  4.82134991084475  2.36245697963539  2.34368092401932
Cl  4.22726566113777  1.27289615761204  5.21226815796641
N  -1.03844863254998  1.75150568161639  0.16001417272825
C  -0.49585327129932  2.96233904735460  0.61730293940260
O  -0.31854989215257  4.04260711225536  0.01268921056139
N  -0.31245786902048  2.84352718350897  1.94734521948578
H  2.34097722864167  2.52343917644675  1.09664367893807
H  -0.10648652885392  2.03930092561970  -2.54677737518822
Cl  -1.93181700743776  2.67271860863731  -4.99948409477594

