%nproc=8
%mem=4000MB
#opt=(noeigen,calcfc,ts,recalc=5,maxcyc=200) freq B3LYP/SVP em=GD3BJ

ts-5028.gjf

0 2
O  2.48492633738452  0.67807464126462  0.09325846278482
H  3.12010492412078  0.50771809256358  -0.65914641267538
H  6.49018862869051  0.98928441873650  3.80141846270944
O  6.22590813420908  0.24350256915060  2.94874589286106
H  5.32579683345707  0.23580845254888  2.51376013565355
O  -2.68949129619721  -1.49260185139678  -1.10425634016844
H  -3.72847536139055  -1.60048314202436  -1.20800827576210
Cl  -4.29179349766085  0.01532947652704  -3.51668390488297
Cl  0.00568039262751  -1.27183118509118  -1.94763034157088
C  -2.77576434939805  0.48830245848770  -2.85174354393166
C  -2.48070866172394  -0.11395352383616  -1.46764265663986
C  -1.00075202470429  0.10209335824372  -1.15294649570652
C  -0.71283033285643  1.60271525960887  -1.52643995702280
C  -1.39277798327543  2.38368013888266  -2.45388626202496
C  -2.29725912549145  1.71693481886824  -3.29832857112064
H  -3.07817616301459  0.60444859199603  -0.81555140756595
H  -0.84084055311815  -0.21428885116600  -0.08263053110235
C  1.09928814158207  2.89735832184254  2.49758843439562
C  1.26600242309672  3.89202481033179  3.48158254458279
C  2.11880203771940  1.89887598235340  2.64676103109675
C  2.25015379780710  3.73605993579695  4.50095356784554
H  0.69564911388687  4.83922860582375  3.40943813030446
C  3.31760147849106  2.11488903815988  3.22254270346056
C  3.26228748090054  2.91014216456332  4.54810425028659
H  2.10822185714371  4.36896881124715  5.43696559303268
Cl  4.56351737991572  2.41585058276461  2.08198757368523
Cl  4.63552781399370  2.68330069822707  5.59238809793368
N  0.12423943430370  1.87176208110883  -0.60525170910572
C  0.12173622774460  3.08284641333084  0.16425631042108
O  -0.15214841424577  4.19322026713618  -0.21396267811201
N  0.26625441242029  2.72448893325217  1.44818669220462
H  3.27726824174680  1.24775618659103  0.44015505752475
H  -0.87599836411671  3.35839557926327  -2.58404787585868
Cl  -2.69214029727928  2.35811542022191  -5.08317209594186

