%nproc=8
%mem=4000MB
#opt=(noeigen,calcfc,ts,recalc=5,maxcyc=200) freq B3LYP/SVP em=GD3BJ

ts-5038.gjf

0 2
O  2.18304165359403  0.86382845782202  -0.56610294208095
H  2.10100758343137  0.15912860304152  -1.16077724107389
H  7.68385826013245  -0.20836788330178  2.70450834140251
O  7.88283955878434  0.43876387039324  3.39014732139768
H  8.73661336768141  0.44576820650057  3.85312692090827
O  -2.55401930916253  -1.42108603476069  -1.25468850723624
H  -2.30557056663611  -1.70405707802433  -2.23353519842576
Cl  -4.07735607827090  -0.58826886030745  -3.09473505738814
Cl  0.20719123211522  -1.23925415898580  -2.28158115424106
C  -2.78220529012330  0.43569791515061  -2.55388390293335
C  -2.24977917717026  -0.10291272708573  -1.24207873970411
C  -0.70073884222428  -0.02053488946791  -1.18684176158245
C  -0.29603670972663  1.47753827175347  -1.50758553510177
C  -0.84484972457588  1.94647801551507  -2.85906759161678
C  -2.15077924228825  1.45240749563556  -3.16837768881616
H  -2.65446357223851  0.40856836785548  -0.36119780288112
H  -0.36883638010867  -0.40750057781836  -0.25699775326656
C  1.36427309668765  3.30401704826190  2.35212908717958
C  1.28587444299825  4.30462953881979  3.48446690086032
C  2.48272666688753  2.59033549202057  2.51976021030836
C  2.34542601771538  4.30210440079975  4.32874576139649
H  0.33231367055954  4.68301409764876  3.75917575485342
C  3.67011822172665  2.71521282869422  3.15705311299027
C  3.56022348735219  3.58955018903936  4.24036160545171
H  2.43240081383727  5.05625889107239  5.10059186494877
Cl  4.87310084043983  1.80843153579007  2.02474278532890
Cl  4.50461506804790  3.59725191698689  5.79995074920219
N  0.15213766333827  2.02222948270949  -0.48885367579891
C  0.12974753073832  3.31670073759923  0.13102458001834
O  -0.32461640990733  4.43941210556720  -0.22094559337006
N  0.40802289823169  3.29477273414737  1.47383829082764
H  2.65736270638911  0.75225228553775  0.33145065340565
H  -0.35245738098381  2.62985266093134  -3.50956064656752
Cl  -3.16485346524719  1.87530819348991  -4.40315426160222

