%nproc=8
%mem=4000MB
#opt=(noeigen,calcfc,ts,recalc=5,maxcyc=200) freq B3LYP/SVP em=GD3BJ

ts-3224.gjf

0 2
O  -2.54119102380021  4.12954336645830  -3.20406761420439
C  2.21677145164960  2.13936979138358  1.98684821042727
C  1.48534986879811  0.97637764579254  2.30554196357861
C  0.70371893901915  0.26995587459538  1.41811885946751
C  0.29062195037225  1.01332640499822  0.24033463233555
C  0.76096505872350  2.36993612877477  0.11067987730607
C  1.79978456204820  2.94299549733257  0.93226268603390
H  1.59648091930767  0.61294195997879  3.30628240039469
H  0.16678351678953  -0.65887044986252  1.63603146740473
C  -2.42871238793345  0.15236027783002  -2.08592694741981
C  -3.76115786550967  0.72331940806573  -2.21121741835936
C  -1.72415331432713  1.38414527590457  -1.37417098529608
C  -3.92935148586845  2.02876609171085  -2.50780825881901
H  -4.58619423015305  0.16118302607502  -1.74328680442135
C  -1.48095907659170  2.07033785692028  -2.65057434268286
C  -2.65518076917181  2.83912555114128  -3.04991888417698
H  -4.76939844773686  2.61697292009184  -2.36964096417906
H  -0.54844031390682  2.21256948919870  -3.15787686274909
Cl  4.05269668741357  2.00044374810796  2.34399356711993
N  -0.82753634946572  0.63751040170264  -0.53842026723126
C  -1.00877678955231  -0.76623400903377  -0.81769514598750
O  -0.51363325873852  -1.54688329060034  -0.07130070753319
N  -1.86557611618512  -1.00001781611262  -1.88674340294573
H  -2.44299351161965  1.75999183499141  -0.39715033823718
H  0.15660722426584  2.93649729451388  -0.59467028709062
Cl  2.49976039022013  4.29534815460111  0.52395604286175

