70
 energy: -143.151500052520 gnorm: 0.102811180135 xtb: 6.6.1 (8d0f1dd)
O    -0.95373209    -0.73770773     0.62785089
H    -1.30664390    -0.50102144    -0.23166692
H    -1.57397230    -1.40373051     0.92960316
O    -3.48256025    -0.15117624    -0.94425573
H    -3.27280549    -1.06197530    -1.15823427
H    -2.91568820     0.38218511    -1.50418414
O     1.65065381    -1.30496308     3.01220856
H     1.42052351    -1.59392209     2.12740274
H     2.59991534    -1.27907926     3.14476396
O    -3.39392147    -0.23417125     1.92541772
H    -4.00879752     0.13571943     2.56137945
H    -3.64437744    -0.05558450     1.01727840
O    -2.71504752    -1.63531935    -3.29619628
H    -1.78615134    -1.77760379    -3.10581187
H    -2.86327571    -1.72947911    -4.23879930
O     0.19192585    -2.84800444    -1.48687271
H     0.44063755    -2.12795934    -2.06912311
H    -0.76205097    -2.85374878    -1.39077546
O    -2.27789391    -3.04094327     2.18753204
H    -2.42986956    -2.16777229     2.55333702
H    -2.48955836    -3.74091393     2.80767543
O    -0.59000802     0.38454630     2.92801811
H    -0.79341385     0.03341299     2.05930087
H    -0.04161274    -0.30910554     3.29875556
O     0.00046033    -0.18753978    -2.54273250
H    -0.73483420     0.39849914    -2.73045284
H     0.80182308     0.33084245    -2.45088797
O    -2.38081822    -2.73772031    -0.85216767
H    -2.92744872    -3.19351305    -1.49465223
H    -2.37125957    -3.28332367    -0.06377443
O    -0.53939204     2.80177289    -3.59403429
Cl    -2.15661514     2.30563253    -3.39504581
H    -0.18779709     2.80068977    -2.69572130
O     1.07753697     2.35561877     3.56868022
Cl     1.03032760     3.91945383     4.24199727
H     0.66367235     1.74645608     4.19175645
O     2.36298571    -2.49889921     0.18388575
Cl     3.66389573    -3.26294507    -0.60670318
H     1.54097970    -2.84573864    -0.18298568
O    -2.91484959     0.65520808     4.36326692
Cl    -2.04466641     0.27042093     5.77602342
H    -2.30540756     0.67677485     3.61580231
C     5.30859828    -0.33736499     0.00967232
C     4.95268739     0.06517925     1.29108103
C     3.76786134     0.72776567     1.54964535
C     2.93177929     1.16471474     0.51672071
C     3.31459163     0.88317165    -0.79441767
C     4.44651153     0.10064266    -0.99141373
H     5.55560333    -0.27318976     2.12344740
H     3.40407029     1.05430221     2.51764613
C    -1.61125521     3.24630067     0.50723024
C    -1.64059521     4.00414104    -0.66609608
C    -2.77063143     3.15411104     1.28260438
C    -2.75097584     4.79321916    -0.93827274
H    -0.73651527     4.02445612    -1.25311636
C    -3.92877346     3.84933612     0.97530735
C    -3.87236352     4.68417302    -0.13101441
H    -2.83745368     5.49886831    -1.75430955
H    -4.81352667     3.80173590     1.59638467
Cl     6.73629872    -1.26695039    -0.31087586
Cl    -5.18901546     5.78097030    -0.45671877
N     1.76665522     1.87757741     0.83897501
H     1.65735964     2.07529012     1.82117608
C     0.69931088     2.30438123     0.06474710
O     0.71109392     2.47457138    -1.13113369
N    -0.46468051     2.47921109     0.78780455
H    -0.46086685     2.16451602     1.74530157
H    -2.77336820     2.58970501     2.20935269
H     2.68292649     1.27642510    -1.57436378
Cl     4.91606734    -0.33887428    -2.60128690
