70
 energy: -143.142169247515 gnorm: 0.118080225670 xtb: 6.6.1 (8d0f1dd)
O     0.41910626    -3.27456086    -0.79152291
H     1.02233098    -3.21827775    -1.53468519
H    -0.37606754    -3.50490167    -1.27523814
O    -2.63007431     0.04254378    -3.04404068
H    -2.15880651    -0.21623288    -2.25013886
H    -2.45461378    -0.63928784    -3.69493031
O    -0.96058989     0.52928785     3.22594773
H    -1.90701274     0.40852546     3.32102053
H    -0.59099906    -0.18986235     3.74127672
O    -3.76641629     0.47687745     3.69822308
H    -4.05364117     0.71076629     4.58260810
H    -4.16588393    -0.33644811     3.38474964
O     1.53614925    -2.45417882    -3.53541207
H     1.85153847    -1.97105694    -4.30122020
H     1.12867847    -1.78360070    -2.98438517
O    -1.90552237    -3.56981082    -2.18978753
H    -2.33084881    -2.76851629    -1.87936446
H    -2.62367353    -4.20008569    -2.26948657
O    -0.68707272    -0.48047527    -1.39986420
H    -0.20643062     0.05603665    -2.03269560
H    -0.25026727    -1.27801582    -1.09577761
O    -3.99972760    -1.87095147    -1.05397930
H    -4.87387898    -1.53556876    -1.26065775
H    -3.90844429    -1.79076329    -0.10288849
O     0.44050383     1.41724952    -3.06061477
H    -0.45672665     1.73904652    -3.16435851
H     0.95325029     1.91503880    -2.42136935
O    -2.63759339    -0.78837913     1.10130138
H    -2.63676091     0.14962198     0.90257656
H    -1.77908543    -1.05925566     0.77125855
O    -5.38788654     0.05342667    -2.39038301
Cl    -6.14735802     1.56081777    -2.61871912
H    -4.52284772     0.03051498    -2.81672713
O     2.24598895     1.65794637     3.67707345
Cl     3.85948763     2.02919229     4.07702738
H     1.76395765     2.49330526     3.65686307
O     0.45501040    -1.67823526     1.36591563
Cl     0.75130826    -2.62407760     2.75110647
H     0.34644437    -2.22298335     0.57721476
O    -0.14914378     2.95196478     3.43548062
Cl    -0.19495649     3.18960276     5.12147891
H    -0.32869648     2.01976782     3.26413967
C     5.61660291    -0.56969540     0.38637337
C     4.75818336    -1.18507057     1.28923091
C     3.49560566    -0.64372015     1.43931815
C     3.00062081     0.36136951     0.60165736
C     3.88906484     0.93801560    -0.30555923
C     5.16901536     0.42419777    -0.47910856
H     5.08587166    -2.04190539     1.86306831
H     2.86577970    -1.20146977     2.12359156
C    -1.34609695     2.75355084     0.28212978
C    -1.15381009     3.65022614    -0.77185154
C    -2.56836213     2.65722455     0.95343166
C    -2.22802749     4.41429005    -1.20995296
H    -0.19952198     3.69741602    -1.27132462
C    -3.61701094     3.45625084     0.52804362
C    -3.43812861     4.32258195    -0.54039170
H    -2.20122449     5.03651681    -2.09508044
H    -4.56152287     3.29491663     1.03069613
Cl     7.23588537    -1.12951107     0.12229152
Cl    -4.78707743     5.25213067    -1.13947115
N     1.67576300     0.79676487     0.75887573
H     1.11330341     0.22996392     1.37379900
C     0.99686907     1.75696440     0.02543584
O     1.44131656     2.36740009    -0.91746872
N    -0.30419163     1.82865566     0.48408039
H    -0.56293824     1.12726172     1.16005730
H    -2.71509265     2.02150001     1.82046598
H     3.52045816     1.79141196    -0.85127777
Cl     6.00737484     1.18688288    -1.79090657
