70
 energy: -143.148001899848 gnorm: 0.113137844290 xtb: 6.6.1 (8d0f1dd)
O    -1.36503529    -0.26794084     3.48023230
H    -2.24711279    -0.25005366     3.85567518
H    -1.35797227    -0.66878892     2.60925031
O    -1.85155435     0.61833919    -2.39727102
H    -2.79791231     0.58877938    -2.54850471
H    -1.91061127     0.42311580    -1.46039420
O     1.53446164    -1.35069733     4.66030144
H     2.00461756    -1.72814070     3.91476235
H     0.60549449    -1.21803831     4.46342590
O    -2.50193721    -0.69440975     0.86174013
H    -3.45272774    -0.76443837     0.75960130
H    -2.14147407    -1.26795078     0.18317144
O     1.02626852    -1.17410347    -3.52790698
H     1.22896795    -0.24428518    -3.41090231
H     0.98047060    -1.37524812    -4.46427309
O    -0.41549961    -1.70478393    -1.24204106
H    -0.36820872    -0.75321564    -1.13424803
H     0.39646875    -1.86040023    -1.72766478
O    -2.48603448    -2.09481642    -4.00174047
H    -2.05791380    -1.76084891    -4.79200361
H    -1.80918643    -2.07514387    -3.32289712
O    -4.71881904    -0.39868977    -2.87546916
H    -4.02047871    -0.97626853    -3.18861726
H    -5.44953057    -0.77044983    -3.37265285
O     1.24051988     1.66006941    -3.03806920
H     1.96062724     1.71417264    -2.40731027
H     0.41327546     1.89457999    -2.61379420
O    -5.34353429    -0.57179444    -0.13086571
H    -5.31063971    -0.47940801    -1.08465868
H    -6.17035995    -0.15891707     0.12453572
O    -1.19493490     0.30335983    -5.15609090
Cl    -2.27358008     1.60995389    -5.33072981
H    -0.87571950     0.29782029    -4.24578477
O     1.37845652     3.98495309     2.82138520
Cl     0.90777338     5.36217189     1.93657426
H     1.93144349     4.34036440     3.52741304
O     1.07167143    -2.29841820     1.17258057
Cl     1.52980105    -3.93529226     1.28177937
H     0.46101382    -2.24280891     0.42787189
O     1.96805621     1.28636427     4.69255296
Cl     0.62466134     2.13883141     5.30062436
H     1.85601429     0.35107993     4.90058632
C     5.21163121    -0.64647257     0.67764946
C     4.98201357    -0.32823357     2.01058686
C     3.77982194     0.24877853     2.37319027
C     2.74470824     0.40027734     1.44449303
C     2.95264604    -0.01939737     0.13089855
C     4.20637653    -0.46795647    -0.26829569
H     5.69670672    -0.33475607     2.82299442
H     3.59670531     0.53286518     3.40360695
C    -1.57334635     2.65047526     1.55479362
C    -1.85999183     3.08962385     0.25985720
C    -2.55772516     2.77205469     2.53971692
C    -3.03772905     3.77796158    -0.00243219
H    -1.18248288     2.88467761    -0.55337381
C    -3.71971215     3.49226632     2.31578892
C    -3.90530179     4.02698478     1.04941016
H    -3.29124095     4.13896180    -0.99073667
H    -4.44193574     3.67270748     3.10104373
Cl     6.77521245    -1.08646926     0.07198859
Cl    -5.41498358     4.88944418     0.90925101
N     1.54988323     0.97557159     1.90380194
H     1.54476040     1.24700910     2.87439462
C     0.42930270     1.25804037     1.13873671
O     0.16160006     0.99691807    -0.00990802
N    -0.37527513     2.02905446     1.95509767
H    -0.32737322     1.84534647     2.94494858
H    -2.43574437     2.31789279     3.51761349
H     2.22197483     0.05740755    -0.65788883
Cl     4.39826351    -0.61695019    -1.98478323
