70
 energy: -143.133751805844 gnorm: 0.106483830430 xtb: 6.6.1 (8d0f1dd)
O     1.11406208    -3.51928098    -0.50349205
H     0.56121072    -4.08968377     0.03347540
H     1.93005036    -3.99540447    -0.66722422
O    -2.22687925     0.80823414    -1.38757020
H    -1.53097188     1.30931036    -1.81649252
H    -2.38074675     1.08443144    -0.48237524
O    -0.59337179     0.45873390     3.51986854
H    -1.22345589     0.09591962     2.89480979
H     0.16052965    -0.13287246     3.48867717
O    -2.98689449     0.21313356     1.77888525
H    -3.69955532     0.56444956     2.31557005
H    -3.17755152    -0.52799499     1.20120296
O     2.06707397    -2.38666888    -2.86457027
H     1.73198242    -1.50522746    -3.03810371
H     1.88011687    -2.58725117    -1.94579288
O    -1.04531174    -2.44261183    -2.49139567
H    -0.25932242    -2.98126552    -2.38457348
H    -0.72185558    -1.71527516    -3.02590193
O    -0.06759385    -1.04852717     0.03061246
H    -0.78145938    -0.96273376    -0.60371627
H     0.26975585    -1.94059600    -0.06811428
O    -3.19558757    -2.20017617    -0.13311332
H    -2.43162324    -1.81966184    -0.57004069
H    -3.81830502    -2.49814077    -0.79852791
O     0.88365182     0.04757172    -3.09315560
H     0.89296767     0.45966303    -2.22745787
H     1.19101834     0.67264254    -3.75205628
O    -5.37627996     1.58719720     0.40179729
H    -5.43583221     1.15067235    -0.44981173
H    -5.65348121     2.48272665     0.20048966
O    -4.61998487     0.12686883    -3.02975751
Cl    -4.53480318     1.30480581    -4.25710048
H    -3.72288405     0.18302595    -2.67955343
O     2.27654652     2.50985321     4.23166341
Cl     2.52110958     0.92797703     4.81391879
H     1.35895602     2.74164275     4.41844774
O     1.38860082    -1.29542749     2.73524613
Cl     1.46836358    -2.66080959     3.75039806
H     0.80467505    -1.38612053     1.97275575
O    -0.52402889     2.93637184     4.32686168
Cl    -1.68738737     3.95121084     5.04648637
H    -0.67692861     2.00149030     4.50908754
C     5.39505610    -0.67439015    -0.80715559
C     5.11001456    -0.84929764     0.54150353
C     4.06878652    -0.16239703     1.13623101
C     3.16504814     0.61930979     0.40885051
C     3.51892285     0.86233954    -0.91802735
C     4.63090148     0.26206960    -1.49732110
H     5.66445895    -1.57888109     1.11694631
H     3.95035176    -0.32039544     2.20253550
C    -1.03668973     3.10350003     0.81742952
C    -1.18295556     3.65367457    -0.45841993
C    -2.08812095     3.13407085     1.73798098
C    -2.41029662     4.19684249    -0.81657089
H    -0.35484261     3.51941047    -1.13559651
C    -3.31398559     3.57875811     1.27046468
C    -3.51814404     4.12884249     0.01356012
H    -2.50822516     4.52387935    -1.84360162
H    -4.13436981     3.45839049     1.96564267
Cl     6.49639797    -1.66782781    -1.70456097
Cl    -5.05009048     4.63658648    -0.64822241
N     2.07560971     1.27331493     1.00461582
H     2.13242686     1.25606691     2.01071179
C     0.93543884     1.74743346     0.37530168
O     0.73246292     1.63977418    -0.81063449
N     0.17597022     2.52074565     1.23171816
H     0.20907261     2.31800847     2.21845517
H    -1.95783420     2.58871308     2.66697740
H     3.08969262     1.72262711    -1.40550225
Cl     5.06619437     0.93481182    -3.03461985
