%nproc=8
%mem=4000MB
#opt=(noeigen,calcfc,ts,recalc=5,maxcyc=200) freq B3LYP/SVP em=GD3BJ

ts-2709.gjf

0 2
C  -1.19880389112264  -2.74983071960503  -5.33502619454629
C  -1.88713626844376  -2.39725384438468  -4.09629092092905
C  -1.36437470305670  -1.43495366673874  -3.30417164164380
C  -0.16164327463377  -0.77875986344824  -3.58040658873959
C  0.45596039753812  -0.99840404228319  -4.79497994975929
C  -0.18091468585014  -1.85831157287874  -5.63620415690866
H  -2.89112561649036  -2.65594045573453  -3.83383135246455
H  -1.96827943229674  -1.00154157595102  -2.52942608819082
C  0.20270380965455  -1.98234908481039  -1.07597483468648
C  0.60796765041534  -3.38330137156170  -0.87906034842810
C  -1.23298616541223  -1.77056446588711  -0.99941492305842
C  -0.25711362743021  -4.51150606127746  -0.80125141568328
H  1.63120457633758  -3.62612392376689  -1.12678547781576
C  -1.99837723213663  -2.87034213642409  -0.74624845567055
C  -1.53975019996765  -4.17591968362700  -0.53740131427261
H  -0.10167821562859  -5.52072148311109  -1.00801795203369
H  -2.96358339079227  -2.52148895315697  -0.29287586575514
Cl  -1.79546039528217  -3.81301882288890  -6.41523510136857
Cl  -3.00450638988343  -5.27037973972228  -0.42786779774843
N  0.32180884731818  0.32150066063427  -2.90154702161960
H  0.80356941174106  1.04912538222006  -3.41754037105934
C  0.62313925653747  0.29462388325864  -1.54252432274768
O  0.82413983142569  1.28918225871341  -0.90114998188345
N  0.88681411515106  -0.96671700202678  -1.15561051620940
H  -1.63178141754006  -0.83306424892019  -0.63877816016574
H  1.33263470699634  -0.58938841334200  -5.24872822510928
Cl  0.69326997008922  -2.15976748302246  -6.99730966270335

