%nproc=8
%mem=4000MB
#opt=(noeigen,calcfc,ts,recalc=5,maxcyc=200) freq B3LYP/SVP em=GD3BJ

ts-5146.gjf

1 1
O  3.75101435994891  0.05438652836638  -0.49953282391258
H  3.70589816494940  0.04610848038204  -1.41143771684883
Cl  -1.08027025708595  0.26477882764102  2.66706803728682
C  -4.68520089764679  -0.48137545747867  -2.10430504236623
C  -4.44729514549002  -0.75958314594123  -0.72808035562961
C  -3.42908768718352  -0.15248688124269  -0.06649274564467
C  -2.27830263079832  0.34065139177573  -0.70726260329259
C  -2.44201316773523  0.52910549674811  -2.09676064808467
C  -3.67299010838415  0.18015101729281  -2.82422525280273
H  -5.30448484732349  -1.14917389354441  -0.16203612369350
H  -3.48830634972149  -0.31902404591552  1.00241902904469
C  1.66838698422170  -1.01713561568540  1.74555554186203
C  3.28458086691595  -1.21118934788013  -0.26716000388921
C  1.74073981476515  -1.24069211732079  3.17000012714131
C  3.04118060577161  -1.38951390408998  1.25779703222909
C  3.04987442473383  -1.36809895855997  3.65975485482331
C  3.83989032466273  -1.52177707673501  2.34098432052338
H  3.29487182502587  -1.56562053483420  4.68185836181934
Cl  -5.94530813352361  -1.23107970116876  -2.79692431381782
Cl  5.21739126650641  -2.37899804060391  1.66838028408473
N  -1.16972748813425  0.33164966988437  0.00621939209483
C  -0.55646815308158  0.13650405050085  1.06253185004089
O  3.02597372982263  -1.85824126557717  -1.23445635025525
N  0.73498321754784  -0.33618757527774  0.88804349017745
H  0.66338530128225  -0.61188782306010  -0.07315822574263
H  0.90833655211242  -1.22104403145835  3.88559620765220
H  -1.76530362078094  1.06878184726267  -2.76993140990986
Cl  -3.98390631508569  0.57159414351013  -4.36968107918530

