%nproc=8
%mem=4000MB
#opt=(noeigen,calcfc,ts,recalc=5,maxcyc=200) freq B3LYP/SVP em=GD3BJ

ts-5176.gjf

1 1
O  3.64920594452735  -1.27877731134187  -0.79964119664482
H  3.34238780309429  -1.30478922147245  -1.71774086024409
Cl  -0.91123423777149  0.72645658496856  3.18030294859286
C  -4.20737136267747  -0.62059926136032  -2.19129316033540
C  -4.39135035392342  -1.12046697070376  -0.93105701863521
C  -3.36875680306932  -1.16373312785119  -0.01207899776584
C  -2.27770073884487  -0.25910858458707  -0.24696071409089
C  -2.44533670928419  0.60540059460322  -1.40774815382996
C  -3.23215850177265  0.23092442591178  -2.47386197929387
H  -5.40516588559249  -1.37035300470716  -0.70451354212112
H  -3.23490196989674  -2.06205875093596  0.57474079399001
C  1.42072770391113  -1.53667720835198  2.22674473502126
C  2.53318864443630  -1.42207328466068  -0.09321348486029
C  1.79950503024742  -1.71429399196702  3.52333662009047
C  2.49976228591680  -1.58019401540783  1.27769384829361
C  3.27456058942463  -1.84922090333786  3.52323268325397
C  3.76761891714214  -1.89478112544234  2.17824755509684
H  3.84291748899939  -1.91015402330393  4.45021940313058
Cl  -5.24563538365876  -0.93180775223508  -3.41899771947228
Cl  5.06089675786913  -2.55587530957660  1.35585164184729
N  -1.31683735264348  0.04143818607629  0.55551892823196
C  -0.55467029190636  -0.51456083699518  1.32797057133928
O  1.41959941506166  -1.49556260638974  -0.94689642738539
N  0.20542145069476  -1.36758924012909  1.73538353162071
H  0.82373146771012  -2.19215671107977  -1.10995457916910
H  1.17700733532550  -1.84790907021050  4.41733150835302
H  -1.90507902193686  1.53116651180947  -1.56083732776049
Cl  -2.67322060368797  0.64132173820409  -4.04147757549929

