%nproc=8
%mem=4000MB
#opt=(noeigen,calcfc,ts,recalc=5,maxcyc=200) freq B3LYP/SVP em=GD3BJ

ts-5196.gjf

1 1
O  2.53679477357146  -2.57746270402031  -0.95966376405153
H  2.38303931009609  -2.07021444451271  -1.75703908420324
Cl  -0.48749075754784  1.20534085851149  4.15002502151632
C  -4.02947009364003  -0.56174084414754  -2.55677611292259
C  -4.32281416340151  -1.42405400387281  -1.48907246628572
C  -3.59024038915813  -1.58552306294388  -0.31412348289009
C  -2.46516031582107  -0.79168540011497  -0.26494970616051
C  -1.95781144429169  -0.21502531273550  -1.46281230124612
C  -2.79843518126319  -0.00792929517031  -2.61644509629701
H  -5.14231448398463  -2.10877480701542  -1.61049102051415
H  -3.88516559868481  -2.01683280001693  0.58886370231556
C  1.43838605203278  -1.83267437885979  2.30929326804999
C  2.07115880520074  -1.84944797434867  -0.00647413553652
C  1.92106961121453  -2.40090254235154  3.45545879422128
C  2.41375525682432  -2.03470320139522  1.33881584620495
C  3.30489602640096  -2.49291659573417  3.33431550475395
C  3.57309904752895  -2.38794997058774  2.01257175705478
H  4.04446408508774  -2.72214549412909  4.09294836574065
Cl  -5.09154629591207  -0.71060218398735  -3.81636401701575
Cl  5.12625715250741  -2.39528266900218  1.50989858571410
N  -1.71507650619957  -0.80271386238096  0.88586962857070
C  -0.59438699355566  -1.14604768330975  1.24247801018223
O  1.22820972623567  -0.77266148810244  -0.25348581338601
N  0.26973253557189  -1.39809158916864  2.02057203353732
H  0.96064801551062  -0.59707401928197  -1.15890623378498
H  1.50075340511093  -2.52318070056201  4.42215010194286
H  -0.94608758434992  0.09534358401207  -1.44016305697469
Cl  -2.48402248841901  0.89320729682858  -4.05863241131157

