%nproc=8
%mem=4000MB
#opt=(noeigen,calcfc,ts,recalc=5,maxcyc=200) freq B3LYP/SVP em=GD3BJ

ts-5206.gjf

1 1
O  2.35309783638637  -2.57391871343210  -1.14328976517613
H  1.48237300233987  -3.10336457374054  -1.12182402258039
Cl  -0.29184575901472  1.57801176191549  4.70774564008949
C  -4.07847922395440  -0.76057627317089  -2.58780816928437
C  -4.58854880909788  -1.33185472888101  -1.45321074441185
C  -3.80249101608387  -1.53893618191808  -0.36893893360040
C  -2.55351048153915  -0.98185807358449  -0.32803706983868
C  -2.28830294002977  -0.03567929212897  -1.29240564374651
C  -2.93244173187956  -0.13328306406842  -2.50530928619988
H  -5.61430670640937  -1.13655520893887  -1.13278932713449
H  -4.09532398544162  -2.41114947305228  0.26962791761003
C  1.31610878300080  -1.88959432814627  2.20746237705980
C  2.24246508488313  -1.80150156724479  -0.12287238877708
C  1.87645852276276  -2.28953882900461  3.46997450932956
C  2.38996713937546  -2.18837540884138  1.21054538628587
C  3.10703383123128  -2.88852707201145  3.30446028034469
C  3.43621682887114  -2.57507161850461  1.86854074282078
H  3.63701257468984  -3.63590384214528  3.84952313189014
Cl  -4.97765873581082  -0.52546280014651  -4.14788414335722
Cl  5.20593714888108  -2.48281522529133  1.50728445527972
N  -1.58416211185154  -1.06999134534146  0.60798168951969
C  -0.77916035171317  -1.82142238435264  1.15905327679112
O  1.49196235748055  -0.69841062170204  -0.37106192165929
N  -0.02227204751786  -1.74621746552145  2.16123610307919
H  1.28515708171659  -0.61525825180909  -1.36627014956910
H  1.30810923976143  -2.27625921982492  4.36912356478821
H  -1.54772647766842  0.74216896681450  -1.22109943934969
Cl  -2.21749587692426  0.81266613190724  -3.74112397949160

