70
 energy: -143.141282360864 gnorm: 0.126042077295 xtb: 6.6.1 (8d0f1dd)
O    -0.22781917    -0.39423695     0.66095318
H    -0.76725880     0.05781928     0.00980953
H    -0.15166645    -1.29392887     0.33831732
O    -2.86626783     0.03631914    -0.47956455
H    -3.31812608    -0.77978375    -0.25789140
H    -2.87606107     0.09357140    -1.43662481
O     2.13640298    -1.83378030     2.88467027
H     2.79268279    -1.53409154     2.25314665
H     1.43794617    -2.12400928     2.29537951
O    -4.25441041     0.08688355     1.90472806
H    -4.98169726     0.70243169     2.01193479
H    -3.91145187     0.39605358     1.06441158
O    -3.56183355    -0.16653748    -3.46539548
H    -3.18179469    -0.81509974    -4.06060691
H    -4.26784373     0.20477737    -3.99738516
O    -0.25941179    -2.61731041    -0.69071236
H    -0.41459208    -2.22844513    -1.55329038
H    -1.02178266    -3.16856586    -0.50565148
O    -2.19559041    -1.87135111     2.12489166
H    -2.91227750    -1.24480053     2.23948413
H    -1.44440624    -1.32539969     2.36363415
O     0.35235060     0.34178570     3.09614191
H     0.10178416     0.28644114     2.17229581
H     0.89516422    -0.43263807     3.25412201
O    -0.08120989    -1.14009907    -3.06518277
H     0.66199065    -0.98857989    -3.65172645
H    -0.41670219    -0.24825802    -2.95840136
O    -2.91287619    -2.82117975    -0.23594475
H    -3.57888534    -3.50801931    -0.29936057
H    -2.65507210    -2.70648806     0.68041826
O    -0.07495751     2.56532901    -3.15495030
Cl    -1.56210278     1.82058009    -3.52225158
H     0.09650421     2.25538339    -2.25766495
O     1.42930900     2.54752119     3.92155750
Cl     0.36621558     3.87627581     3.84801716
H     0.93188436     1.72110814     3.90751137
O     2.35691953    -3.02127149     0.22609714
Cl     3.61078316    -2.78102384    -0.90140936
H     1.52961180    -2.62424010    -0.07141610
O    -3.52305845     0.32049315     4.82122408
Cl    -2.11914310    -0.22932186     5.61361664
H    -3.46241677     0.02330727     3.90547782
C     5.21231611    -0.11900634    -0.10247902
C     5.00200088     0.07722031     1.25692713
C     3.83706927     0.68434702     1.68590312
C     2.91189998     1.03869847     0.69828596
C     3.13805800     0.88050648    -0.66872658
C     4.31170626     0.26682665    -1.09103959
H     5.80446528    -0.19865594     1.92832721
H     3.65955934     0.92498126     2.72829502
C    -1.38558115     3.32022174     0.81349109
C    -1.32604963     3.97710285    -0.41810977
C    -2.65406200     3.19613165     1.38743806
C    -2.42786636     4.66900183    -0.90487998
H    -0.38067011     4.12431188    -0.91505353
C    -3.73083631     3.87525055     0.84116255
C    -3.69111424     4.60430973    -0.33823450
H    -2.40856288     5.30151213    -1.78288528
H    -4.66737056     3.83743724     1.38177775
Cl     6.60203463    -1.01814078    -0.61769564
Cl    -5.10487843     5.35670012    -1.02946488
N     1.81043879     1.76343402     1.17899024
H     1.76113415     1.77876973     2.18551327
C     0.67571844     2.12559998     0.47042851
O     0.66597412     2.06554152    -0.73602594
N    -0.30704576     2.57724561     1.32975626
H    -0.41865920     2.32178639     2.29832793
H    -2.80507564     2.71051852     2.34597801
H     2.45790431     1.24431554    -1.42171984
Cl     4.64859024    -0.07289689    -2.75730677
