%nproc=8
%mem=4000MB
#opt=(noeigen,calcfc,ts,recalc=5,maxcyc=200) freq B3LYP/SVP em=GD3BJ

ts-1971.gjf

1 1
O  1.08884055898551  -3.72217868398915  4.43456290545604
H  0.53761753355223  -3.24809509572531  5.06148606791800
C  0.86806793066776  0.34613767847157  -3.06548646005612
C  0.37458797596796  -0.95789298607460  -3.05620079402332
C  0.16299038967052  -1.65470713755701  -1.88804854242415
C  0.25079022600213  -0.90360566938206  -0.66408953558877
C  0.88614727649429  0.32696414553355  -0.61951822152192
C  1.05718426728052  1.07087881230627  -1.78304125538038
H  0.14209753145592  -1.41121850853067  -3.98882692027239
H  -0.48142382462212  -2.52513468241920  -1.90997557006224
C  -1.69885382283250  -4.00127267068769  1.96159351731672
C  0.51907630852164  -3.83969897458198  3.25948075794024
C  -3.02932513729671  -4.57390084827402  1.96166151835208
C  -0.93303004083930  -4.24494671483412  3.21833354859601
H  1.07216726341942  -4.58578048646827  2.58510357584149
C  -2.90385110902690  -4.95223978928013  3.48365794168020
C  -1.68597796745199  -4.67173834334045  4.18867717907953
H  -3.55132328175681  -5.68824862156861  3.86485531424587
Cl  0.50701386943799  1.30091122903119  -4.33194814051525
Cl  -1.21309842802663  -5.22862346074531  5.65940918061781
N  -0.05482210578865  -1.38246914331430  0.45971503562192
C  -0.24240503059149  -2.48609117814593  1.17303862786866
O  0.44086365012045  -2.58016144219808  2.36321525014448
N  -0.97421470626106  -3.62006470536682  0.75395218390433
H  -1.08852182141964  -4.14103793519308  -0.07871779961904
H  -3.77030575825150  -4.98520566723986  1.30821119864008
H  1.17900057412606  0.70881510653051  0.36780215711906
Cl  1.41304044638540  2.73779759418887  -1.93324297026666

