%nproc=8
%mem=4000MB
#opt=(noeigen,calcfc,ts,recalc=5,maxcyc=200) freq B3LYP/SVP em=GD3BJ

ts-1981.gjf

1 1
O  0.85123697324494  -3.06539030263800  4.48151230754867
H  1.80609298167013  -3.20766441255224  4.72719872535661
C  0.61362598072467  0.48703676477374  -3.06403050334583
C  0.14096679071354  -0.84195111993644  -2.93812207982937
C  0.16153216470009  -1.60630255913721  -1.81981475388849
C  0.29390685192861  -0.85847433015267  -0.52406400381929
C  0.63637493349180  0.48819884098130  -0.63496992777111
C  0.80230822536825  1.12950878054344  -1.84485566091582
H  0.10295052622743  -1.07691286124090  -3.99444430143462
H  -0.38569647261785  -2.52675403617396  -1.98896173988906
C  -1.58961649889341  -4.09458007543298  2.01468387286621
C  0.48671491399979  -3.89487450509741  3.23890203362964
C  -2.82011321717446  -4.71142449581166  2.05515720983318
C  -0.70065514440188  -4.55545291251329  2.99151543718597
H  1.28405937610551  -4.64901430306887  3.18810478013927
C  -2.86642135975254  -5.09286283966062  3.49789185049969
C  -1.57467650243123  -5.22283534295111  4.03833036738112
H  -3.76287112287943  -5.64378399817966  3.68530941163374
Cl  0.85864413452834  0.99133105717781  -4.74749908265805
Cl  -1.47025706110138  -5.48716299796157  5.78331566261362
N  0.61499340023191  -1.40597824607027  0.69135070114207
C  0.19177358739627  -2.28836024733529  1.49673073594090
O  0.96712990172142  -2.89465559759721  2.33497568036314
N  -1.04474219229601  -3.08585344670861  1.29264917024519
H  -1.82173029108498  -2.70090191932066  0.77681295945299
H  -3.63659956931159  -4.71294548017634  1.32775834020281
H  0.69936470801644  0.96765510354935  0.32558314311990
Cl  1.69916924803078  2.54629767076901  -1.76155090107871

