70
 energy: -143.150049278034 gnorm: 0.108164577197 xtb: 6.6.1 (8d0f1dd)
O     0.04305514    -1.57791483     2.36130331
H     0.85045411    -1.48095996     1.85332233
H    -0.66077064    -1.27565963     1.78458002
O    -2.89706700    -1.22804594    -2.24582273
H    -3.21487650    -2.12340098    -2.11668994
H    -1.98299953    -1.24311913    -1.95670073
O    -2.51937675    -4.03411842    -2.34147484
H    -1.69235259    -4.15799881    -1.87240841
H    -3.01622897    -4.85368708    -2.36946492
O    -1.00924116    -0.80894345    -0.42090927
H    -0.12533776    -0.46737693    -0.27466951
H    -0.90153707    -1.75625398    -0.52260029
O    -2.91595441    -0.41825457     1.38261245
H    -3.84061394    -0.44258008     1.13012045
H    -2.41502150    -0.49062066     0.56826150
O     1.82350157    -1.12458849    -1.74942702
H     0.99672168    -1.26118107    -2.21538352
H     2.16076191    -0.22945751    -1.68358288
O    -0.25725177    -3.49243498    -0.34094752
H     0.45911827    -2.95246170    -0.00245046
H     0.07529696    -4.38641452    -0.24322084
O    -0.01876835    -0.03784377     4.92198686
H    -0.92821626     0.17988142     4.71023604
H     0.28511121    -0.68943912     4.28762322
O    -0.64687233     1.47506811    -3.86622245
H    -0.73407191     2.17654865    -3.21841083
H     0.01096624     1.82033886    -4.47233658
O    -0.29614870    -1.35973087    -3.56692770
H    -0.55922440    -0.47556145    -3.82841181
H    -0.24211441    -1.93425211    -4.33265868
O    -4.96573553    -0.12743175    -0.88793962
Cl    -5.89421356     1.18749028    -1.44477964
H    -4.32331289    -0.36902971    -1.56581128
O     1.69215889     2.11765646     4.24179854
Cl     0.82356307     3.49723482     4.73522484
H     1.37601391     1.29757939     4.63943285
O     2.26060201    -1.44743188     0.65840067
Cl     3.48676361    -2.48884045     1.21800745
H     2.25118694    -1.36701380    -0.30286434
O    -2.55332227     1.77420568     3.05295426
Cl    -3.70533780     3.02514065     2.95712757
H    -2.75714446     1.11311818     2.38063893
C     5.76063420    -0.23705939     0.70557015
C     5.29121896    -0.09677711     2.00583663
C     4.13952220     0.62720525     2.24900973
C     3.50092912     1.31265807     1.21014290
C     4.00636172     1.27632148    -0.08913119
C     5.07702663     0.41874014    -0.31414804
H     5.80130054    -0.58601177     2.82516636
H     3.65136789     0.55072746     3.21433457
C    -0.94055851     3.19813770     0.34611994
C    -1.45256963     2.53617618    -0.77259768
C    -1.57523428     4.38676201     0.71789426
C    -2.52917624     3.06673351    -1.47195219
H    -1.11233282     1.54286247    -1.01740948
C    -2.63731366     4.93057841     0.01410913
C    -3.12699981     4.25959530    -1.09677868
H    -2.99807536     2.41350330    -2.19635481
H    -2.99483868     5.90823852     0.30931696
Cl     7.05680932    -1.35210506     0.41954232
Cl    -4.55352873     4.73723938    -1.97966676
N     2.25269629     1.89015998     1.48932291
H     2.10541615     2.18636002     2.44133597
C     1.09872707     1.84602987     0.72301888
O     1.01961442     1.09127024    -0.21682869
N     0.07229749     2.65958906     1.16212853
H     0.24253136     3.08405469     2.06029190
H    -1.16680647     4.97096559     1.53601221
H     3.46990198     1.79088971    -0.86976909
Cl     5.37372566     0.26587687    -2.01530998
