%nproc=8
%mem=4000MB
#opt=(noeigen,calcfc,ts,recalc=5,maxcyc=200) freq B3LYP/SVP em=GD3BJ

ts-4341.gjf

1 1
O  -4.99472657349417  -0.30424567447534  4.23891909741578
H  -5.86574640368039  0.09687502762293  4.26502404014801
C  2.07430025396268  -3.06535489210408  1.24709470383907
C  2.42895807629526  -1.83342833014413  1.77918580776902
C  1.33312828399287  -1.13243628044356  2.37957690718454
C  -0.06507759286887  -1.38058411125949  2.14615218768196
C  -0.27360663980886  -2.60254415474625  1.62417039823594
C  0.71448156215992  -3.42239260699629  1.05905299661485
H  3.45369836044130  -1.54064489548682  2.00184264230016
H  1.54974991065897  -0.16221783270049  2.85331078195446
C  -2.43340050299034  1.99507388709988  2.80589504534772
C  -3.75903258126782  2.58844193204174  2.58722528755093
C  -2.04383700413110  -0.20175714111162  3.21529000861150
C  -4.90400254050951  1.90391134473289  3.10052782852631
H  -3.83306018559567  3.45871328569998  1.97031670284841
C  -2.85859897432343  0.85754751575881  3.67590107511649
C  -4.32838287296646  0.53301708600246  3.44569393245360
H  -5.91111628501042  2.27666559970343  3.20644955893043
H  -2.95115903214901  1.15175401060048  4.72575886169911
Cl  3.69106211505303  -3.80076813945842  0.29146978889212
Cl  -4.21994464100120  -0.40138047527818  1.62887821214733
N  -0.93267580619954  -0.24092688632769  2.56953585093079
C  -0.42498592265239  1.56533669203696  1.73533331623545
O  0.51444470610772  1.56423379514604  1.09240261738587
N  -1.32782010134480  2.25033594696912  2.09790704784721
H  -2.58587539765701  -1.12694922717181  2.98067894563777
H  -1.30633087014234  -2.79848621981212  1.43080754526698
Cl  0.07354707620127  -4.64889747061116  -0.04237238671513

