%nproc=8
%mem=4000MB
#opt=(noeigen,calcfc,ts,recalc=5,maxcyc=200) freq B3LYP/SVP em=GD3BJ

ts-4351.gjf

1 1
O  -4.83416219076192  -0.08395733193896  4.20660905477345
H  -5.58360383302450  -0.66099867220594  4.19370906006563
C  2.04045809282160  -2.88413975958649  0.98762264882700
C  2.55271319310853  -1.65525559132458  1.58825723102505
C  1.62479156562421  -0.88186274100994  2.28454626925075
C  0.18972202283440  -1.30536690201266  2.23128867118167
C  -0.23563729136246  -2.44460890711235  1.42004709920453
C  0.65488353275788  -3.25028415447288  0.73686342175245
H  3.60457337056252  -1.41739638110022  1.53665232299598
H  2.01616636194557  -0.00080189378571  2.79720157196565
C  -2.43649801783607  1.91890813579025  2.52949693924309
C  -3.77523053076855  2.62391565378515  2.41133453043560
C  -1.88076836222860  -0.44083103695461  3.56357546799841
C  -4.85417691192780  1.79064971999211  2.76102697549072
H  -3.93254037501853  3.50988011548436  1.84831320645185
C  -2.74870581091662  0.83682966636957  3.53154185787760
C  -4.35589924251589  0.47257930137960  3.10622532764502
H  -5.90146634195050  2.01274756616374  2.90579298144235
H  -2.71876101833362  1.20062959641367  4.56690381071414
Cl  3.24442382530467  -4.01228215835160  1.16543278873606
Cl  -4.17045679462826  -0.73603115437223  1.66793510993411
N  -0.86794403426864  -0.80686350867897  2.89371936337808
C  -0.47748590707639  1.97314611629929  1.61167147315412
O  0.53288933075986  1.45860686438234  1.54610596906400
N  -1.53305126281369  2.50467793256747  1.75973082823504
H  -2.12883693662290  -1.11760430712954  4.44033765240204
H  -1.30216905962487  -2.62774234473502  1.37956859154492
Cl  -0.08160391464150  -4.90502767422171  0.26824222303195

