%nproc=8
%mem=4000MB
#opt=(noeigen,calcfc,ts,recalc=5,maxcyc=200) freq B3LYP/SVP em=GD3BJ

ts-1672.gjf

0 2
O  2.46532829956811  3.86896466271742  -1.80654929356219
H  2.43099194509861  4.61952398676458  -1.18280856280954
C  3.03449815126839  -3.55759847731181  0.66184675090259
C  3.46485682508665  -2.57176365641701  1.46822029973048
C  2.58320974793439  -1.63080856495659  1.94478298667743
C  1.58868335423982  -1.43955609501925  1.14092844149243
C  1.27258626213600  -2.37494819149503  0.15229465837732
C  1.96896772034821  -3.53574392453638  -0.13788727723590
H  4.24198698266817  -2.74067090573748  2.17131422393815
H  2.87538038463398  -0.85514760029434  2.72400738034303
C  -0.87102586153655  2.44828219440508  -0.11481896854662
C  -0.52062730542672  2.70109798753937  -1.56738095091577
C  -2.11854847478518  1.96335166457830  0.13842499151838
C  -1.50858010052438  2.65660697021008  -2.49990126290198
H  0.47554922348590  2.72351936429508  -1.90239199306390
C  -3.15267541728588  2.20585419264030  -0.80107214692272
C  -2.86839403559804  2.82349562753015  -1.96765155104421
H  -1.35313595384852  2.93475453584838  -3.53477908043867
H  -4.19046472306409  2.07091296815980  -0.55964734518608
Cl  4.17354751785351  -4.70468876991806  0.87878405786240
Cl  -3.85269056397658  3.99782320352139  -2.70249994769711
N  1.09034804173632  -0.10887529177253  1.40197227280784
H  1.47543746192963  0.22455600889578  2.31865981910578
C  0.45026157003426  0.57626457315263  0.44133037267634
O  -0.04780780146780  0.06264283617669  -0.51534066888455
N  0.22896738913588  2.08945231759625  0.72951736722536
H  1.16342095217171  2.45815462564467  0.56714740918658
H  -2.50850712879309  1.34852436228171  0.92383211968965
H  0.54234142833952  -2.10875704741803  -0.61377146322428
Cl  1.58765557243062  -4.52286646663996  -1.48381763417486

