%nproc=8
%mem=4000MB
#opt=(noeigen,calcfc,ts,recalc=5,maxcyc=200) freq B3LYP/SVP em=GD3BJ

ts-1702.gjf

0 2
O  3.68735698781396  0.95767835319200  -0.27840544604127
H  3.90106124449162  1.87299494539669  -0.62424050875653
C  3.53711901392239  -3.71121243989864  1.03166835149522
C  3.77196761582026  -2.80335294852047  2.01887112415914
C  3.40065225446873  -1.49670709327185  2.09555853346063
C  2.41668924759139  -0.93216533363089  1.32711222345235
C  1.92341851681782  -1.85925781312635  0.35116543414507
C  2.49874355292043  -3.06181538536662  0.23151078215451
H  4.37643172541771  -3.20889762409167  2.84179918573445
H  4.00127176340546  -0.83889219971503  2.77223167364025
C  -1.10465527571365  2.18982860370471  -0.57159557659708
C  -0.97910133958085  2.26669464357265  -1.94236019488868
C  -2.33824332167456  2.82837677743049  -0.25636318347976
C  -1.71710226141957  2.75561148040743  -3.00506363953896
H  -0.09310779576624  1.72023589846348  -2.17420182354828
C  -3.17439983928942  3.34685462711214  -1.22423375199592
C  -3.04837702981320  3.12096085980534  -2.60414982479295
H  -1.34449030553831  2.75817300057062  -4.03850798359955
H  -4.13851276866319  3.51220484493319  -0.76894117242047
Cl  3.94009662825863  -5.16550647020448  0.63576984556389
Cl  -3.91397941201389  3.08322561562102  -3.97615176846168
N  1.86080491290337  0.34201466363815  1.41034434428955
H  3.03696528272445  0.81861326614510  0.48278958080286
C  0.97087884002660  0.67667490829627  0.35112631091911
O  1.01154261366365  0.13021104944840  -0.71260856013469
N  -0.02789262330420  1.80762418228682  0.32207980420033
H  -0.00230643462081  2.52852792484335  1.05101436028875
H  -2.68528756480223  2.93712062179185  0.78592119245639
H  0.98882710200008  -1.74519006433394  -0.19404322664767
Cl  1.46865590002258  -3.95797838467241  -0.86268596552065

