%nproc=8
%mem=4000MB
#opt=(noeigen,calcfc,ts,recalc=5,maxcyc=200) freq B3LYP/SVP em=GD3BJ

ts-1712.gjf

0 2
O  5.10865510697278  0.47128589370369  -0.09384425495927
H  5.42713382037845  -0.33351177376097  -0.47533571247105
C  3.39418444332303  -3.38393036793324  1.00371104692876
C  3.83060889329375  -2.11544974009554  1.36946429017939
C  3.03771629895339  -0.93387585643591  1.50727738496118
C  1.76928020375809  -0.91295937606474  1.01763109111054
C  1.25708299699940  -2.19662029143923  0.41780337580138
C  2.03053157551019  -3.32109384261910  0.38142198186095
H  4.86423694592665  -2.02953644363155  1.68317005128361
H  3.43734189709852  0.02298603405628  1.57663941397595
C  -0.83740335342076  2.43378565994671  -0.66588403464648
C  -0.67934656810935  2.28493395811000  -2.07765631216616
C  -2.10384742618034  3.05994160204610  -0.32819815561833
C  -1.73747507256478  2.04238890631779  -2.99500181120345
H  0.31336484212797  2.14475750769805  -2.48951840337930
C  -2.98850619877247  3.13821473930399  -1.36314043203118
C  -2.94309628873163  2.61365838829624  -2.67848678237279
H  -1.45594815109274  1.48292451884724  -3.87714408320641
H  -3.92183250142095  3.71450307994357  -1.23844560673861
Cl  4.06828505177563  -4.99379813979524  1.18570526229919
Cl  -4.06003450801544  3.03300692614228  -3.69685192156109
N  1.27823418281253  0.33358388128918  1.07359649892601
H  5.78690529610641  0.88800564629628  -0.99865714937620
C  0.73503198610372  0.84480581490908  -0.03247235949789
O  1.09145000470654  0.69294880427486  -1.16781444548790
N  -0.17840966236560  1.74890217620624  0.33750565101259
H  -0.25146718614894  1.68895588107849  1.35645858601332
H  -2.27909394610314  3.41202190597450  0.67440523249660
H  0.45900839387984  -2.32348523946895  -0.27687264161088
Cl  1.59510627701676  -4.36746450236792  -1.04878825431301

