%nproc=8
%mem=4000MB
#opt=(noeigen,calcfc,ts,recalc=5,maxcyc=200) freq B3LYP/SVP em=GD3BJ

ts-1603.gjf

0 2
O  1.81528876227690  -2.46072213286051  -1.13925257591010
H  1.36013584863807  -2.40878762110837  -4.01418286450699
H  2.13385404577009  -3.28954022099777  -0.99521751008156
O  -0.43335019766472  -3.95433083973860  -2.18059946035749
Cl  -1.26770258932717  -4.70610515623362  -3.37363274587773
H  0.95403296240710  -2.44576070210470  -1.84601802965741
O  1.57033933155038  -3.08552351326468  -4.45967350951624
H  2.53236857563110  -3.18292639937117  -4.51188492540274

