70
 energy: -143.135024103664 gnorm: 0.115653541594 xtb: 6.6.1 (8d0f1dd)
O    -4.35933959    -1.39297087     5.59510454
H    -4.41666122    -2.26089511     5.99853950
H    -3.44945102    -1.13974352     5.42982479
O    -0.86267091     0.35432046    -1.84433070
H    -0.36683827     1.09751677    -1.49626744
H    -1.68877284     0.29055482    -1.36180857
O    -1.59636473    -0.43495993     4.01207260
H    -1.94251251    -0.44990789     3.11803855
H    -0.99532005    -1.18195635     4.00312841
O    -1.65065250     0.01689015     1.39372668
H    -2.49355470     0.32497022     1.05617444
H    -1.42418652    -0.74662184     0.85977811
O     1.68967861    -1.47333475    -3.95616357
H     2.45344465    -0.94087982    -4.18527576
H     1.09211776    -1.55476294    -4.70156855
O    -0.80869596    -2.06809624    -0.80334752
H    -0.62567037    -1.30668032    -1.35659739
H    -0.30419921    -2.84386815    -1.05434639
O     1.42659337    -3.14297693    -1.84980965
H     1.41079687    -2.45854564    -2.52110818
H     1.36725262    -3.97241666    -2.32714286
O    -3.45947395    -2.18224672    -0.24385975
H    -2.57890051    -2.32862401    -0.59386300
H    -3.66133896    -2.99563030     0.22196659
O     0.05131212    -1.38037001    -6.01300824
H     0.12277381    -0.87468930    -6.82449998
H    -0.72586368    -1.05351643    -5.55638768
O    -3.64611580     0.46589324    -0.45919953
H    -3.79655494    -0.47058954    -0.31882005
H    -4.48074461     0.87508154    -0.69435475
O    -1.94339115     0.61386293    -4.40654819
Cl    -3.31439518     1.60115640    -4.19030349
H    -1.57977906     0.59893280    -3.51315592
O     2.25284951     1.34727991     4.52167249
Cl     2.68077779     2.03087289     6.02192002
H     1.34108582     1.04601913     4.61395479
O     1.93181533    -1.30540834     0.61129228
Cl     1.43360690    -2.25746673     1.93285839
H     1.72580585    -1.70722035    -0.24117082
O    -0.63492969     1.74206417     4.79226356
Cl    -0.81910340     3.29072215     5.47702581
H    -1.53450618     1.39382129     4.78348264
C     5.18073991    -0.19050367    -0.56186401
C     5.07575038     0.14183699     0.78321939
C     4.06536306     0.97908744     1.21659917
C     3.19182754     1.48156498     0.24637092
C     3.35181337     1.29514787    -1.12641773
C     4.32404261     0.37518209    -1.50169727
H     5.75760156    -0.25716140     1.52262060
H     4.05021066     1.28180608     2.25781352
C    -1.36721026     3.14294259     0.85164373
C    -1.73549047     3.79122689    -0.32986998
C    -2.38213880     2.88030449     1.77619684
C    -3.03963151     4.17712455    -0.61265735
H    -1.03374013     4.08751955    -1.09283993
C    -3.69351045     3.17552876     1.44122018
C    -4.05141673     3.80840650     0.25992792
H    -3.26875242     4.70245660    -1.53073416
H    -4.44731636     2.92450729     2.17576488
Cl     6.31763860    -1.37689585    -1.11426191
Cl    -5.76178810     4.07019959     0.03921530
N     2.08533180     2.18160626     0.75148908
H     2.11855894     2.14472542     1.75811240
C     0.84567606     2.42378919     0.18103727
O     0.67473739     2.38297738    -1.01409815
N    -0.08880121     2.64890547     1.17317048
H    -0.05777495     2.25770350     2.10152733
H    -2.20207121     2.40420137     2.73448987
H     2.56090576     1.52894964    -1.82051199
Cl     4.60469381     0.24557494    -3.20750679
