%nproc=8
%mem=4000MB
#opt=(noeigen,calcfc,ts,recalc=5,maxcyc=200) freq B3LYP/SVP em=GD3BJ

ts-4614.gjf

0 1
O  1.54051451207159  3.34968014149470  -0.44085932874584
H  1.73544324104125  3.27732428629326  0.48578822362656
H  0.48571066756682  2.56440521146936  -0.46362054274883
O  -0.92676857985094  1.43693713261177  2.69644379294172
H  -1.62070216271748  0.98511980583806  3.17988343742982
C  2.03144067121247  -0.03054142659256  3.21591867019930
C  0.73532184637132  -0.42316755814847  3.00885376234990
C  -0.17053939997599  0.32602164630789  2.07135484503091
C  0.72409603591277  1.12973576394077  0.97019715819427
C  2.10024203881220  1.28931133125774  1.31362679028511
C  2.71004139456066  0.96146913219124  2.47401331875322
H  0.15383068159902  -1.03227777482412  3.70904150455027
H  -0.87331241527925  -0.20442097522822  1.40054149382770
Cl  2.78634609995325  -1.04873413068863  4.22481294245915
N  0.06989879989256  1.47044344219193  -0.18557114210328
H  -0.05755538550567  0.57236550958014  -0.71530446106558
H  2.83568733141044  1.38679130886355  0.52592789214187
Cl  4.49798594400028  0.66865526013932  2.51762653913349

