%nproc=8
%mem=4000MB
#opt=(noeigen,calcfc,ts,recalc=5,maxcyc=200) freq B3LYP/SVP em=GD3BJ

ts-4624.gjf

0 1
O  2.84991414348889  2.46837377427672  -2.74971901962662
H  1.92454981229525  2.25921407639802  -2.99018866064050
H  -1.23016297652856  -1.02993902221046  -0.07366812812746
O  -1.20626337481135  0.44840133578309  2.95171128071031
H  -0.78343081652509  1.27126194241001  3.05920786400298
C  1.74839211028511  -0.68251980291760  3.22927516908889
C  0.50119669730456  -1.24937373602039  3.15627105075244
C  -0.35580759904715  -0.35891725009536  2.18717094958355
C  0.27174565806054  0.06422938868128  0.94491283142540
C  1.57827826494414  0.63396639632550  1.15250433530809
C  2.30344337899995  0.25643340550937  2.24035229266508
H  -0.13768479499450  -1.60751146346374  3.92160449929841
H  -1.11865514366802  -1.05560639173479  1.80045220355618
Cl  2.76529372323081  -1.23296963830313  4.64489151306723
N  -0.18829178277511  -0.38530380151278  -0.29862956088170
H  0.72852082781790  -0.44652331283443  -0.66986595313695
H  2.17813485248214  0.95093034532518  0.30143821034261
Cl  3.87665367257629  0.84486333512756  2.56882044544231

