%nproc=8
%mem=4000MB
#opt=(noeigen,calcfc,ts,recalc=5,maxcyc=200) freq B3LYP/SVP em=GD3BJ

ts-4634.gjf

0 1
O  3.20223678465994  1.87536504242090  -4.16959174268468
H  3.52509772671074  1.17393367517787  -3.60510956719095
H  -1.33989924713305  -1.26421097762871  -0.10533938452002
O  -1.17800674768962  -0.01788487050486  2.85000132431667
H  -2.06933936178745  -0.27794071317315  3.02562896841329
C  1.54411208563281  -1.08330657742719  3.60055006307650
C  0.43613161344445  -1.79688933429435  3.51541289482214
C  -0.47816818938901  -1.26776222160256  2.34267745751391
C  0.23684587960865  -1.10365174190176  1.01627248082874
C  1.53066768769013  -0.62892433470720  1.10601481242059
C  1.99751513610315  -0.49999550895055  2.37573591027563
H  -0.01031039320763  -2.38365860875314  4.31807157967170
H  -1.16577892545626  -2.18091054302513  2.38924697384136
Cl  2.67395180988050  -1.30913966724220  4.81570688470986
N  -0.42142839104523  -0.94909691274682  -0.18112702480197
H  -0.03613418911521  -0.54324331444650  -0.99564435167597
H  2.01109125575034  -0.18981385441710  0.24269965317193
Cl  3.07414569731232  1.02797435206402  2.76799478498120

