70
 energy: -143.140771641922 gnorm: 0.120452183319 xtb: 6.6.1 (8d0f1dd)
O    -1.04787705    -1.38154857     0.71775850
H    -0.71950514    -0.92721901    -0.06011974
H    -1.99677781    -1.37521579     0.58033247
O    -4.67142880    -1.28918349    -2.47088432
H    -5.62092212    -1.35466656    -2.35463808
H    -4.36736833    -2.19367598    -2.37718992
O     0.30417530    -0.38615219     2.76149138
H     0.58915273    -1.29394182     2.88000068
H    -0.46201006    -0.45583775     2.18926566
O    -3.48402478    -0.26573807     0.06101656
H    -3.60632885    -0.71580842    -0.77672885
H    -3.09422572     0.55489398    -0.24550946
O    -1.71633873    -0.71343663    -3.51089413
H    -1.62997833     0.18829982    -3.19664511
H    -2.60756349    -0.99343304    -3.72690001
O     1.69346826    -2.89740608     0.28030837
H     2.18060288    -2.83364197    -0.54308217
H     1.01386617    -2.23202298     0.15887613
O    -1.37803517    -3.40849344    -1.39518096
H    -0.65322043    -2.88701582    -1.74452625
H    -1.28207504    -3.24687223    -0.45496353
O    -2.54385338    -0.45000280     2.97150061
H    -3.39987208    -0.63629874     3.36119792
H    -2.03583997    -1.19355540     3.30072456
O     0.53437360    -0.86442771    -1.55325252
H    -0.05908611    -0.76681167    -2.29998893
H     1.05643202    -0.07329661    -1.40866892
O    -3.99115014    -4.00473131    -2.50441096
H    -3.09456351    -4.04622854    -2.16714440
H    -4.17940085    -4.86720989    -2.87861768
O    -1.89842715     1.75860900    -1.94739476
Cl    -2.77798681     2.99753000    -2.71720759
H    -1.11581101     2.10166471    -1.49972170
O     1.43003335     2.82576484     3.44837664
Cl     2.97415668     2.13460021     3.64621306
H     0.73534770     2.62073228     4.08552701
O     1.62583677    -3.32052528     2.92358661
Cl     1.07839251    -4.90834352     2.64021085
H     1.88659421    -2.95943434     2.06789682
O    -0.89292101     1.57099776     4.45926024
Cl    -2.53470007     1.82626006     4.83417822
H    -0.73997302     0.74006641     3.99369814
C     5.73032790     0.57544237    -0.58584647
C     5.22003595    -0.05021019     0.54503083
C     3.86490233    -0.00705882     0.81231295
C     3.08838975     0.95483496     0.15757683
C     3.63392586     1.62035911    -0.93985808
C     4.93855072     1.40874853    -1.37064388
H     5.80552066    -0.75312154     1.12292198
H     3.49100252    -0.56973887     1.66059684
C    -1.34553571     2.87422949     0.69169881
C    -1.19703961     4.16079259     0.16769342
C    -2.62767833     2.41672350     1.00896153
C    -2.30547903     4.96403696    -0.06859030
H    -0.21628193     4.55724751    -0.04040233
C    -3.74777784     3.18325866     0.73171938
C    -3.56506146     4.42516024     0.14148416
H    -2.19376977     5.92296781    -0.55778129
H    -4.66632818     2.65819729     0.95836195
Cl     7.41530974     0.47246244    -0.98010504
Cl    -5.04485250     5.17883891    -0.39218875
N     1.75151953     1.08773850     0.56334717
H     1.49602397     0.68332264     1.45043484
C     0.78503925     1.86196490    -0.05898992
O     0.67767257     2.13149266    -1.23162005
N    -0.23453642     2.02591908     0.85852728
H    -0.05067744     1.63806858     1.77045704
H    -2.81760943     1.45701604     1.47833533
H     2.95801844     2.24443001    -1.50168510
Cl     5.52591365     2.38603749    -2.67650003
