%nproc=8
%mem=4000MB
#opt=(noeigen,calcfc,ts,recalc=5,maxcyc=200) freq B3LYP/SVP em=GD3BJ

ts-5152.gjf

0 1
Cl  1.96976785451860  -4.35563575358803  -3.45443914442686
O  4.62654728313926  -4.29258204834511  -2.03045215509106
C  1.04252880111872  -0.93392367503905  -0.29179893665588
C  1.89407331042512  -2.04570817840712  -0.29392227569758
C  1.42434184208837  -2.99832577965074  -1.21159506090681
C  2.35880465212471  -3.89003165807966  -1.72418261829520
C  0.10121945859157  -2.62367966467440  -1.60796047499257
C  0.01782447348379  -1.25680235410196  -1.28040082928339
H  2.80966675743320  -2.16912008689168  0.23997653038246
Cl  1.59800085727621  0.50894155358193  0.43302759083299
N  3.64547731830408  -3.63575404991569  -1.60968135665105
H  -0.41261185014925  -3.23695851489765  -2.32737838750601
Cl  -0.76750120054957  0.17744562692509  -1.93109459186980

