%nproc=8
%mem=4000MB
#opt=(noeigen,calcfc,ts,recalc=5,maxcyc=200) freq B3LYP/SVP em=GD3BJ

ts-5172.gjf

0 1
Cl  1.78891574691966  -5.21405383577483  -2.64929845171888
O  5.11378280099661  -4.47091406265077  -3.43237410829659
C  1.47874143322534  -0.72705382894933  -0.69472524946452
C  2.50471729668743  -1.59766357843461  -0.52982563783870
C  2.49854584596623  -2.43067347758443  -1.80749666700178
C  3.28823639226313  -3.49462345543907  -2.21984973750599
C  1.44681565270179  -2.06356560045964  -2.57355043183618
C  0.74251447307842  -1.09829074502784  -1.87362413967997
H  3.26523696723931  -1.74849438749858  0.21609129382687
Cl  0.86510295611766  0.23741412633991  0.59479749172629
N  4.30107433575691  -3.82593735041346  -2.80421354205866
H  1.16157369320332  -2.52305506318688  -3.50969655718337
Cl  -0.75218758800907  -0.51367225948419  -2.34951769831555

