%nproc=8
%mem=4000MB
#opt=(noeigen,calcfc,ts,recalc=5,maxcyc=200) freq B3LYP/SVP em=GD3BJ

ts-489.gjf

0 1
O  1.84350492026925  -8.97907047508637  0.41809119511647
H  1.88768891541906  -8.10596169234328  0.02650350311688
C  -2.67140456521742  3.05494997896236  2.65961236739241
C  -2.99302895612779  3.38174126158799  1.27225416691041
C  -2.41296285192478  2.84111456072077  0.16830560283632
C  -1.59183791520513  1.75071449838505  0.34502819074094
C  -1.85072712382403  1.07099506876909  1.54603193394977
C  -2.15580191039321  1.79502276446507  2.69038337101549
H  -3.45588657267523  4.33372674282342  1.07054148356509
H  -2.41331718119047  3.48650443088833  -0.69155824142723
C  0.08841497095385  -1.98568908511778  -0.53217677955960
C  -0.74211845738083  -2.34310439531831  0.58537673266624
C  0.56837537119723  -2.90638194003777  -1.49881222911995
C  -1.14701252854018  -3.64334312663893  0.77250056280846
H  -1.23581755387034  -1.54325639837970  1.15580137067558
C  0.03917980770471  -4.15345092276846  -1.28084084277288
C  -0.79192192474494  -4.51489069666731  -0.19801050688175
H  -1.91032876347754  -3.90457177669882  1.50011691592873
H  0.19314690540379  -4.87849704849662  -2.05597030464460
Cl  -2.61173208940617  4.08667148328056  3.92342606573470
Cl  -1.69493670352251  -5.91234960176673  -0.58273742966698
N  -0.62735128325884  1.46794637895347  -0.58955814127716
H  0.22422538265251  1.82566852122472  -0.19529919809311
C  -0.33062204083272  0.29456028154851  -1.41405552979598
O  -0.57370337032672  0.38187283198182  -2.62090763606244
N  0.22305472393197  -0.71021652790601  -0.83137814427592
H  1.11050975120361  -2.60456467700704  -2.35079292398506
H  -1.43694668341382  0.09785721727927  1.59627211673557
Cl  -2.22395205302405  0.72401926849304  4.07550238962629

