%nproc=8
%mem=4000MB
#opt=(noeigen,calcfc,ts,recalc=5,maxcyc=200) freq B3LYP/SVP em=GD3BJ

ts-499.gjf

0 1
O  1.06406694300841  -7.97832880096444  -0.04108013777660
H  1.16279566384774  -7.94086025001396  0.92738070527771
C  -2.41137919675381  3.24992796976601  2.37729698003351
C  -2.31317994559537  3.90916656174378  1.11325481412198
C  -2.15528937524879  3.27060633940642  -0.05149287298346
C  -1.40493563225429  2.05563883595525  0.03363070250834
C  -1.39171022513636  1.50115009572018  1.32547924104744
C  -2.03341596082048  1.95683373571648  2.50444955471924
H  -2.54181718299112  4.93661287123668  1.13947236917274
H  -2.13342628845757  3.83415008234632  -0.98515313466090
C  -0.29372143047573  -1.84820809723708  -0.42481783995533
C  -0.30846907708347  -2.52057607214376  0.77427207698776
C  -0.11417984147315  -2.67663366688153  -1.51937306107239
C  -0.74648893532662  -3.84560618172856  0.83720261268751
H  -0.06547807934607  -2.00796574449894  1.66320123444288
C  -0.38125077436011  -4.00562111263484  -1.46730429793395
C  -1.01870561990395  -4.56797923603978  -0.29291626994962
H  -0.83430713623251  -4.37847211256840  1.77173737683357
H  -0.29226448759467  -4.59104956466185  -2.37691335814459
Cl  -2.88005304269349  4.52299471378452  3.53635622312898
Cl  -1.96057436024827  -6.05356082956706  -0.35207908720859
N  -0.65475700529765  1.82845070737599  -1.14209889902976
H  0.07988562102411  2.49998602102615  -1.32164249911183
C  -0.56920517506005  0.41540776830836  -1.47681516470885
O  -0.46257768973883  0.28386896186328  -2.65333650588116
N  -0.43829336374959  -0.52509634428613  -0.59228898980711
H  0.12639527483844  -2.17373111334769  -2.45621869032327
H  -0.83478156200491  0.53773977470426  1.53584664696385
Cl  -1.93663243130856  1.09669136439897  3.94291277161203

