%nproc=8
%mem=4000MB
#opt=(noeigen,calcfc,ts,recalc=5,maxcyc=200) freq B3LYP/SVP em=GD3BJ

ts-509.gjf

0 1
O  0.30930151565350  -6.65151859950908  -0.38608325573400
H  0.26364773068127  -7.19383730092014  0.40336725672078
C  -2.22110128278290  3.90321604172350  2.07538927633009
C  -1.99638723620120  4.39523210702511  0.76654252990774
C  -1.12884307579490  3.87110060119404  -0.20665544199988
C  -0.97852761875024  2.48860698210471  -0.10316495689874
C  -1.05002391483955  1.98913937391509  1.10131099741486
C  -1.60049529397133  2.67721476264207  2.16616464083941
H  -2.41712699700136  5.36623839365853  0.45323413984453
H  -1.12261347139164  4.28161496655844  -1.20492919931019
C  -0.58186951699329  -1.96555275365896  -0.38161782922882
C  -0.24758832615833  -2.67951179657483  0.77710913085281
C  -0.60411537013429  -2.73426104477846  -1.69512093448293
C  -0.06194757743643  -4.02445645250518  0.62590382871032
H  0.16504161162593  -2.14324189721237  1.63943709781593
C  -0.82343382142647  -4.08382600455853  -1.76842461186213
C  -0.76323922826046  -4.69649067689346  -0.43476952737175
H  0.42477947745764  -4.70202507892897  1.30208827741539
H  -0.99454797769268  -4.66246802314641  -2.66134494089891
Cl  -3.15952213775835  4.47504481271524  3.42247985764974
Cl  -1.68933423842833  -5.91181116914982  -0.01311894140575
N  -0.92584449605337  1.59550955747131  -1.28416846686950
H  -0.35326885808050  2.03279180716750  -1.97807556796448
C  -0.64528622108661  0.21386590540812  -1.36031460029689
O  -0.19996864004572  -0.20161614860236  -2.43720596960585
N  -0.60258486579543  -0.59151138156088  -0.29839859589832
H  0.02755719583073  -2.34993768295149  -2.50284108337045
H  -0.85628517131128  0.96892026956344  1.21181444228215
Cl  -1.79544832799115  1.67894946853751  3.61202532107200

