%nproc=8
%mem=4000MB
#opt=(noeigen,calcfc,ts,recalc=5,maxcyc=200) freq B3LYP/SVP em=GD3BJ

ts-539.gjf

0 1
O  1.33797947321893  -5.13536646701301  -0.35787966867419
H  1.02251692170792  -5.85801260549498  0.29053822034705
C  -1.68252798382374  4.26473390641249  1.38458963607191
C  -1.57073036515307  4.38236200378864  -0.04140784343982
C  -0.73452900057141  3.64788589485433  -0.90009585986177
C  -0.15332276209272  2.50990317225920  -0.33953367342782
C  -0.65810552604914  2.08015479188487  0.97457538226564
C  -1.19899553404513  2.95311259137508  1.88121965137306
H  -2.08426870384849  5.32545130391597  -0.43068943502046
H  -0.44817698729641  3.97130821995737  -1.89248360922273
C  -0.51961783040954  -1.39394046011154  -0.34278176248852
C  -0.26668497375321  -2.08070895821463  0.88937813425961
C  -0.07105403732195  -2.14565120207847  -1.43703333966833
C  0.41744444626644  -3.32400607998679  1.09310872411599
H  -0.42120299737255  -1.46299375592531  1.80335066300994
C  0.21249622471109  -3.50007384129001  -1.33792478268674
C  0.51231266089068  -4.15952755190156  -0.13733891171569
H  0.71703682000493  -3.75069167636379  2.03588928382439
H  0.63248497278517  -4.18359710813711  -2.07446714022324
Cl  -2.93058090332579  5.29342677778349  2.01717413226735
Cl  -2.23098859043360  -5.66268381273321  0.38324506283759
N  0.58335016299288  1.69588814635507  -1.12126772621841
H  1.29011243693491  2.22765012498676  -1.55914829136860
C  0.17936460286510  0.49801228407950  -1.46133413595733
O  0.64398625594686  0.23264445454567  -2.61922886238839
N  -0.57951756325200  -0.10184868970053  -0.40107322239617
H  0.08745438458600  -1.73579102886295  -2.43066224041695
H  -0.40245606343968  1.14313534928163  1.33715201739939
Cl  -1.49793188835013  2.66397774950914  3.64577976086150

