70
 energy: -143.124912513097 gnorm: 0.105452612874 xtb: 6.6.1 (8d0f1dd)
O    -0.46433664    -2.84013334    -1.13291148
H    -0.55713129    -2.00039381    -1.58630391
H    -1.21039546    -3.41260172    -1.32003413
O     0.00126746     1.90334282    -4.12804996
H     0.84603986     1.63668311    -4.49491640
H     0.20853508     2.60600718    -3.50947013
O    -1.92848310     3.72944843     3.15899918
H    -1.51629533     4.40204308     3.70402789
H    -1.91766269     3.94753650     2.22537244
O    -0.03239061     1.70779573     3.54991927
H     0.28371121     2.01758325     2.69936044
H    -0.86333680     2.16945854     3.67535587
O    -0.13235918    -0.31669555    -2.41327614
H    -0.42598626     0.46357845    -1.93967841
H     0.62511946    -0.00992569    -2.91473048
O     2.32187140    -2.16770317    -2.62657141
H     1.36985649    -2.21184201    -2.73172534
H     2.40001344    -2.59879265    -1.77369677
O    -2.79859480    -1.45567795    -3.44803343
H    -3.04036295    -1.31233378    -4.36473298
H    -1.97974355    -0.96262893    -3.37237706
O    -4.86454510    -0.21665648    -1.48073347
H    -5.13219642     0.51659163    -2.03755314
H    -4.39327534    -0.79579288    -2.08226681
O     0.64484160     3.58241798    -1.97215856
H     1.41302641     4.12062695    -2.17106007
H     0.42627734     3.56438327    -1.03875498
O     2.38596776     0.47652983    -3.94179539
H     2.56595212    -0.46032466    -3.84563078
H     3.15415955     0.85701077    -3.51231441
O    -2.50344148     1.75179548    -4.14024882
Cl    -3.27214081     2.13421614    -2.66918866
H    -1.55456187     1.61528364    -4.03264584
O     1.70299226     4.00446396     1.29279051
Cl     2.84081488     3.07502314     0.43101089
H     1.74793412     3.55124168     2.14317683
O    -1.04246967    -0.94979462     3.89146676
Cl    -0.82314043    -1.29954722     5.54395930
H    -0.66407641    -0.06761007     3.79578452
O     1.99300654     3.81432453     4.13672103
Cl     3.31105901     4.88459559     4.27243544
H     1.48144143     3.93964035     4.94491974
C     4.85315392    -1.09844409    -0.39924855
C     4.42563750    -2.16873235     0.37691845
C     3.13706615    -2.19911149     0.87526563
C     2.28344261    -1.13145148     0.57807915
C     2.68577554    -0.00823651    -0.14400937
C     3.98166315    -0.04163234    -0.64596701
H     5.16082424    -2.96045401     0.43618183
H     2.71978020    -3.03820151     1.42097238
C    -2.52099725    -0.13927770     1.27729593
C    -2.73053071     1.10488333     0.67726548
C    -3.51853283    -0.68497008     2.09031485
C    -3.93319120     1.77817134     0.85035666
H    -2.05427414     1.46586753    -0.08084630
C    -4.69492572     0.01723299     2.29543184
C    -4.88526445     1.26305513     1.71596580
H    -4.10372399     2.71615132     0.33806051
H    -5.45129753    -0.42113959     2.93302280
Cl     6.48989882    -0.99013511    -0.96009057
Cl    -6.39359808     2.12591697     1.86768600
N     0.96364252    -1.19735255     1.05064636
H     0.72806743    -2.03229715     1.56360504
C    -0.03146107    -0.25791036     0.83148567
O     0.02838184     0.81528048     0.28020120
N    -1.26837462    -0.77242781     1.16848731
H    -1.10508583    -1.58240486     1.74565454
H    -3.30738981    -1.66299447     2.51020886
H     2.05442196     0.80773123    -0.45634613
Cl     4.37940605     1.32135583    -1.64065946
