%nproc=8
%mem=4000MB
#opt=(noeigen,calcfc,ts,recalc=5,maxcyc=200) freq B3LYP/SVP em=GD3BJ

ts-1380.gjf

1 1
O  -3.20077812051355  -4.02872122252655  -2.63753037716997
H  -3.76928095009009  -4.44359258529913  -2.02015684301958
C  2.06235311542927  1.77187450203126  3.74580971572988
C  2.53422411110607  0.96239929492814  2.71222382719478
C  1.72380758500982  0.40722979074230  1.74476006148924
C  0.38760238357437  0.89361267760121  1.65457099007202
C  -0.10025352381846  1.89488979700113  2.60940375574064
C  0.68845834352103  2.07362921582799  3.68027452427080
H  3.57417617540028  0.71299126698867  2.49479735708680
H  1.87206093051784  -0.38111978427852  1.03326247902114
C  -1.42889113223691  -0.45145746580386  -2.56016832844666
C  -2.70960979525684  -0.43476418684564  -3.16663868732145
C  -0.84193873238018  -1.56295292262292  -1.93234999793434
C  -3.41755237130659  -1.57521677009640  -2.96816723061848
H  -3.00500660301199  0.49799121100963  -3.63728582633695
C  -1.45848993183848  -2.75949258655879  -1.94005955482612
C  -2.81417395572044  -2.72784206844772  -2.42265926051129
H  -4.33695520861915  -1.68375180426140  -3.52199937783236
H  -0.99378977817934  -3.66534114567766  -1.67085691434554
Cl  2.86461446230579  2.33349681027660  5.15789949302474
N  -0.38873482642701  0.15512312422895  0.85694612800572
H  -1.23045093262888  0.61772038364321  0.53441001858491
C  -0.05961721313960  1.41525979711307  -1.85908268103539
O  0.18768648186504  2.43948969771977  -1.44619085685459
N  -0.60620376141205  0.54680373964166  -2.50891650832364
H  0.16675922059752  -1.34665759679923  -1.71083780610677
H  -1.10293241764878  2.25850836855537  2.48395057543709
Cl  -0.16743893535971  2.53334425101159  5.18615123976783

