%nproc=8
%mem=4000MB
#opt=(noeigen,calcfc,ts,recalc=5,maxcyc=200) freq B3LYP/SVP em=GD3BJ

ts-1410.gjf

1 1
O  -4.12471770106942  -3.68064705412410  -3.82301322880653
H  -4.43806571500430  -3.04821967650457  -4.45234190695643
C  1.95392873358975  1.87580648372583  3.37599713923165
C  2.51308938625005  1.39177202227316  2.15491423732100
C  1.67385618405559  0.88752953082762  1.11646872257511
C  0.28524234458826  0.65074998592682  1.38931524156277
C  -0.12966949239149  0.89736902452450  2.71769415000654
C  0.68876808873403  1.52454296154705  3.66649365931777
H  3.58150481383878  1.39900496984819  1.90345187857737
H  2.14309425527750  0.37587472364459  0.28713273442803
C  -1.87149938689223  -0.51096494151682  -2.28653187928547
C  -2.88877854289704  -0.24744721174887  -3.28119119295344
C  -1.54007701269588  -1.88082481901783  -1.89616303889225
C  -3.72929461363810  -1.26942628150440  -3.59266245503420
H  -3.03403709864769  0.75285914772201  -3.72415480639763
C  -2.25876169993123  -2.94658665882000  -2.45469773812559
C  -3.41122763075628  -2.64568511647993  -3.09496809285647
H  -4.45210452787955  -1.20816334435024  -4.41578143133962
H  -2.13149266418497  -3.98290188432762  -2.39303752690345
Cl  3.02475484887414  2.53279426541330  4.71220640558292
N  -0.67602511175320  0.47310410029730  0.44196227479158
H  -1.59352609975153  0.03863004586374  0.51930535421665
C  -0.28512346252638  0.82418382840800  -0.86042433788655
O  0.92384490487015  1.32983708486297  -1.09291551707020
N  -0.94545837406365  0.45398495391485  -1.89862887971170
H  -0.68974553810809  -2.08221558349623  -1.28014268089749
H  -1.10473407437098  0.57059244491165  3.00674244053595
Cl  -0.35800278651060  2.06938720165666  4.98816490930828

