%nproc=8
%mem=4000MB
#opt=(noeigen,calcfc,ts,recalc=5,maxcyc=200) freq B3LYP/SVP em=GD3BJ

ts-2158.gjf

0 2
O  -0.54122284129735  -1.54394262403333  -5.73208724794593
Cl  -0.04053997408149  -2.96464648453880  -5.95655212291571
C  2.91504001631756  -2.43213606221091  -3.36613959523462
C  2.15143719088433  -2.89307895469646  -2.33321396710368
C  0.88463185729915  -2.28039915164273  -1.96367256121938
C  0.55696096022692  -1.04791202899544  -2.50497532390993
C  1.46278233071135  -0.47897667527903  -3.49606539603219
C  2.53442255282803  -1.18624135524189  -3.82368336937593
H  2.44301523013311  -3.86325817313543  -1.88573921650337
H  0.44935127974199  -2.80729960987725  -1.10985747350140
Cl  4.66920571844850  -2.82142166765487  -3.86306414426671
N  -0.60153557766848  -0.30390176594096  -2.23293433916741
C  -1.64227927508977  0.09860398856708  -1.83694914175673
O  -2.59161049177451  0.71961530810265  -1.64367216107825
H  1.29474116285789  0.58262543158297  -3.69932569900772
Cl  3.46174510668685  -0.57364725453462  -5.27198976922358

