70
 energy: -143.144772211907 gnorm: 0.109197090772 xtb: 6.6.1 (8d0f1dd)
O    -2.83442174    -0.67063525     2.99890548
H    -2.89846160    -1.39141643     3.62796145
H    -2.90399074    -1.12635229     2.15817912
O    -1.10910052     1.23255047    -1.83328558
H    -0.86581610     2.00784295    -1.32429338
H    -2.01614777     0.97694863    -1.65644936
O    -0.30877479    -0.05636396     2.90907549
H    -0.24069389     0.29120254     2.01806418
H    -1.23501621    -0.07115865     3.15645436
O    -2.29334945    -1.34066336     0.35832472
H    -2.73301177    -0.72783923    -0.23369099
H    -1.37844325    -1.51397129     0.12974330
O     0.86458593    -1.27615203    -3.67542463
H     1.18925782    -0.38262800    -3.55075640
H     0.61528191    -1.31925240    -4.60026406
O     0.33195198    -1.18644293    -0.77872555
H     0.17078497    -0.37284276    -1.25978474
H     0.42453064    -1.96001859    -1.33760777
O    -0.78375977    -3.49200454    -2.39710096
H    -0.42965853    -2.80794986    -2.96808166
H    -0.27873368    -4.28493648    -2.58563790
O    -3.45558262    -2.05127009    -2.63600948
H    -3.00244835    -2.89040364    -2.53669993
H    -2.84917426    -1.46198041    -3.08805271
O     0.98422739     1.80917993    -3.52493252
H     1.57977055     2.46165345    -3.15217892
H     0.26439913     1.66951460    -2.90713103
O    -3.77966809     0.10774084    -1.34288445
H    -3.89995267    -0.79869764    -1.63139654
H    -4.51410844     0.26330140    -0.74644788
O    -1.81425422    -0.17326194    -4.12093229
Cl    -3.15231487     0.85258993    -4.36255984
H    -1.01104583     0.34407086    -3.98748017
O     3.51818024     2.73612533     4.71590522
Cl     3.48626938     4.41068150     5.02575681
H     2.70504815     2.37871076     5.09228019
O     1.44320460    -1.56056013     1.71348583
Cl     0.89976555    -3.15460185     1.96817937
H     1.26498470    -1.29377617     0.80373305
O     1.00110482     1.72882618     4.41094203
Cl    -0.38834013     2.52683564     4.98868284
H     0.71775893     0.84588008     4.14502968
C     4.81341467    -0.68760336    -0.07294257
C     4.75713320    -0.28068855     1.25445167
C     3.81464360     0.59768367     1.75431630
C     2.88491825     1.13221455     0.85610780
C     3.02856271     0.92463753    -0.51545106
C     4.03988597     0.07304379    -0.94488685
H     5.44398027    -0.77380889     1.92966157
H     3.89062721     0.87723555     2.79933917
C    -1.71806302     2.82105622     1.30538143
C    -1.91250387     3.69796995     0.23529142
C    -2.82082583     2.45516889     2.08249012
C    -3.20416972     4.09057075    -0.09202122
H    -1.04527120     4.04480564    -0.30320517
C    -4.10861173     2.79373692     1.70033627
C    -4.30680946     3.61415895     0.59956020
H    -3.36496572     4.75835116    -0.92841181
H    -4.98270934     2.49409743     2.26332885
Cl     5.93642671    -1.87613958    -0.64864590
Cl    -5.88127564     4.07049087     0.00337448
N     1.86127614     1.91701057     1.40908807
H     1.93908593     2.07474490     2.40146920
C     0.68105354     2.28969278     0.78539190
O     0.62447696     2.32262907    -0.42082064
N    -0.39093733     2.48587224     1.63427514
H    -0.20036056     2.11706378     2.55270256
H    -2.62943139     1.88438688     2.98526371
H     2.36674981     1.48223130    -1.15814689
Cl     4.15833547    -0.05738413    -2.66950499
