70
 energy: -143.139194509613 gnorm: 0.136920042729 xtb: 6.6.1 (8d0f1dd)
O    -3.51618135    -0.46363857     3.52199304
H    -3.74548779    -0.67815338     4.42794004
H    -3.64044313    -1.20399781     2.92553191
O    -3.53760400    -1.06752607    -1.59088183
H    -4.03883399    -0.32782534    -1.93866069
H    -3.56834301    -1.22813438    -0.64610770
O    -1.17169516    -0.13379639     2.47563863
H    -0.93760555    -1.05648717     2.36082401
H    -2.08651187    -0.12699112     2.76269689
O    -3.03761395    -2.17835069     1.22964735
H    -3.44101871    -2.88592891     0.72374554
H    -2.17650415    -2.40733435     1.58375872
O     0.48722965    -3.27316345    -1.63584651
H     0.28860099    -2.37676569    -1.35951899
H     0.94113087    -3.19167647    -2.47648417
O     1.34014108    -4.49068862     0.72229049
H     1.31096798    -4.11154962    -0.15790298
H     2.27499611    -4.58822874     0.91168811
O    -2.87901265    -3.52310059    -2.59716715
H    -1.97515883    -3.20411633    -2.62236145
H    -3.34616911    -2.70758083    -2.78698534
O    -3.41277333    -4.64661234    -0.10600665
H    -3.63671663    -5.57736713    -0.15970110
H    -3.14406628    -4.35904935    -0.98032957
O    -0.77546364    -0.51523275    -1.44093342
H    -1.56457191    -1.05987854    -1.44370901
H    -0.89365644     0.01861230    -2.22857403
O    -3.70471302     1.38581772    -2.71733576
H    -2.84366465     1.60733917    -2.35836183
H    -3.87602602     2.05320122    -3.38411115
O     0.20001595     3.12204098    -2.74768777
Cl    -0.74242133     4.45257952    -3.24027419
H     0.58263833     3.20910926    -1.86643546
O     1.41486399     5.04080467     1.21330713
Cl     2.13080093     4.31913090     2.57997678
H     1.30043529     4.29556223     0.61155396
O    -0.45053429    -3.36691908     2.36361911
Cl     0.47580094    -2.53717651     3.52748943
H     0.04483616    -4.06005384     1.91111668
O     0.57568922     1.51809689     3.90192149
Cl     1.90458357     0.45318224     3.93594245
H    -0.16399251     0.93834562     3.68432673
C     5.18667759    -0.33699081    -0.05825703
C     4.28204502    -1.06474896     0.70511079
C     3.01673679    -0.61612298     1.03285873
C     2.69387039     0.69200006     0.65674407
C     3.58980222     1.47887298    -0.06646584
C     4.80834667     0.93989999    -0.46277255
H     4.54639911    -2.08535659     0.94865110
H     2.33507039    -1.28737653     1.54349075
C    -1.76480963     2.63084130     0.33175372
C    -1.84874209     4.00675863     0.10441195
C    -2.94020907     1.87591336     0.38050910
C    -3.10363504     4.51735563    -0.20251457
H    -0.99150137     4.65732118     0.16977790
C    -4.16866387     2.38085255    -0.01318812
C    -4.24480114     3.73643559    -0.29723077
H    -3.21394170     5.59275845    -0.25424838
H    -5.02609049     1.72084628    -0.01472708
Cl     6.56614982    -1.07065057    -0.80926181
Cl    -5.81887236     4.45505445    -0.51747292
N     1.41381755     1.07692019     1.08433751
H     0.96227091     0.28363035     1.51159806
C     0.64052665     2.05096673     0.47272597
O     1.00642249     2.90463086    -0.29968071
N    -0.67640264     1.91667532     0.86758852
H    -0.89293341     1.16752858     1.50613501
H    -2.91751467     0.85221342     0.73960161
H     3.25953844     2.47866401    -0.29735255
Cl     5.79692737     1.95341717    -1.46319262
