%nproc=8
%mem=4000MB
#opt=(noeigen,calcfc,ts,recalc=5,maxcyc=200) freq B3LYP/SVP em=GD3BJ

ts-2891.gjf

0 2
O  -2.03903544602396  5.98500471037828  -2.25356846868443
H  -3.86135830116763  -2.10753857076532  -2.80569224426035
Cl  -5.16646482719600  -2.44225344848106  -2.45928315356214
C  2.93777006007514  -0.02417893197896  1.44589021535103
C  2.52102864187498  0.60427679617764  0.29134674472295
C  1.28228404709476  0.38080757115451  -0.22554334818509
C  0.45683456454596  -0.36977112211080  0.59957788469882
C  0.86564503050678  -0.85042794439635  1.87487323529748
C  2.14812520576205  -0.82912037394418  2.24463149384455
H  3.26822683416361  1.08618771763618  -0.27571946570888
H  0.98078837900787  0.73906225175546  -1.15591173866786
C  -2.45117592465004  2.08761828826294  -1.58538522910491
C  -3.64573700762251  2.94048591651317  -1.22777700027596
C  -1.44035998774901  2.50443168466234  -2.59721521671165
C  -3.47285645332947  4.27652334318024  -1.47327127915423
H  -4.44613698035524  2.55665202028405  -0.61541601455833
C  -1.40908495534764  3.80108979549630  -2.88837127295330
C  -2.29120690486842  4.75831643455646  -2.19654496009566
H  -3.97888029614378  5.10365887788542  -1.01926889161149
H  -0.59767802877360  4.25720680010161  -3.54081287204289
Cl  4.63352424355748  0.14060953586112  2.03545210234370
N  -0.90256983620731  -0.18982244237238  0.49199309516928
C  -1.61279453037043  -0.08626365950687  -0.73824919457667
O  -1.60019527400252  -0.95210850776219  -1.60802749042559
N  -1.98921256598803  1.16418856583045  -0.76335416275010
H  -0.71991793682354  1.78203745585155  -2.95078421768778
H  0.04254404724246  -1.30064412692084  2.39526993247955
Cl  2.44989718060193  -1.48515872674824  3.85294349142860

