%nproc=8
%mem=4000MB
#opt=(noeigen,calcfc,ts,recalc=5,maxcyc=200) freq B3LYP/SVP em=GD3BJ

ts-2911.gjf

0 2
O  -2.30239940071531  6.19300304770066  -2.49784682020503
H  -3.01047731266207  -1.40627156096356  -1.75594506292260
Cl  -4.49112671155684  -1.89122907672600  -1.81137377287481
C  2.89762266043668  -0.23976561471769  1.41796578082162
C  2.57209464474178  0.12829366250523  0.08527181347282
C  1.30194656038278  0.06347273802701  -0.40874613492049
C  0.28421253876412  -0.25430521058827  0.58215347102159
C  0.56342904424216  -0.64973674140642  1.92839061357152
C  1.87405219118871  -0.58527130178792  2.31081825779317
H  3.28629488819196  0.49154484640363  -0.64671418625364
H  0.88890719842987  0.40079216528489  -1.35901073734200
C  -2.23690383156454  2.27698002613616  -0.98653862001066
C  -3.11932832995903  3.41654852071157  -0.65699112956763
C  -1.16463000903872  2.75576514352157  -1.86723789826405
C  -3.00743451278952  4.75096473080417  -0.84111009938960
H  -3.94775099239769  3.11486980336287  0.03633566057081
C  -1.16307409532124  4.12341123836335  -2.23870988328214
C  -2.05385498300269  5.14430787368446  -1.88084426121495
H  -3.77242853189740  5.51902640201628  -0.69602695538728
H  -0.45765426502017  4.36955557591536  -3.04452296089913
Cl  4.56704932845292  -0.61471352976601  1.51605268940444
N  -0.99462885922072  -0.30913592861693  0.36914032207503
C  -1.81442376347276  -0.06484869539683  -0.69173272293957
O  -1.90368990416506  -0.67337915347297  -1.77959902882355
N  -2.44666317695588  1.09224443603735  -0.66975214253122
H  -0.50983325461039  2.01343829254934  -2.37903648085225
H  -0.30241672308427  -0.83257902424542  2.54585489760111
Cl  2.56436249128477  -1.15457077674860  3.83814767872838

