%nproc=8
%mem=4000MB
#opt=(noeigen,calcfc,ts,recalc=5,maxcyc=200) freq B3LYP/SVP em=GD3BJ

ts-2921.gjf

0 2
O  -2.28963552514505  6.25337592336693  -2.35900400730763
H  -1.88977396161439  -0.40297619648036  -2.63250058093898
Cl  -4.22741843933493  -1.80028138388221  -1.66281672039300
C  2.85938469281508  -0.49711303988420  1.08182379917451
C  2.51040567415765  -0.17979022941620  -0.24916943910321
C  1.20904791062685  -0.05078876895379  -0.52810417948088
C  0.29424715066589  -0.10252749247020  0.54895476742272
C  0.67967836887920  -0.35269188967793  1.86774299589769
C  1.99545275262056  -0.52441424019693  2.11482402704256
H  3.17887456743914  -0.09923820403139  -1.07016499392855
H  0.88917934237094  0.30551659611607  -1.46729613889326
C  -2.11594345628187  2.63179256206196  -0.80711716477612
C  -2.91483005610767  3.62173568759381  -0.13638557947662
C  -1.24091723142589  2.98274976727538  -1.92774164006995
C  -3.04638708725073  4.90091338163177  -0.56976388200517
H  -3.43905614621149  3.30005682810471  0.70327766002309
C  -1.40316638169872  4.22174131045947  -2.43620843162430
C  -2.31190485107450  5.14429125815410  -1.82745608345537
H  -3.80704155901280  5.54574911061924  -0.18775514830697
H  -0.83785462089844  4.61769749030455  -3.33579254005059
Cl  4.75223756785905  -0.83754184055130  1.39736748606886
N  -1.09244098016971  -0.42345185824244  0.35835901313391
C  -1.76093432030565  0.08268537970647  -0.69110306926355
O  -1.97423676505581  -0.76594732466732  -1.75718194658562
N  -2.15252221149437  1.27323588581769  -0.54686130833758
H  -0.50738010789065  2.23853983033273  -2.16559204463674
H  -0.06628448251620  -0.48110290643153  2.62278362039261
Cl  2.05142272553778  -0.58620953485188  3.86852239967371

