%nproc=8
%mem=4000MB
#opt=(noeigen,calcfc,ts,recalc=5,maxcyc=200) freq B3LYP/SVP em=GD3BJ

ts-2941.gjf

0 2
O  -2.44901611432108  6.71488759281921  -1.98733112316461
H  -2.50600614783460  -0.83723995649129  -2.26963804634299
Cl  -4.60907803101983  -2.04090831239447  -1.39660279666049
C  3.24797177164459  -0.78430411260900  1.25425645624211
C  2.98667137145365  -1.12159425474092  -0.10439026658234
C  1.82070122658056  -0.60340845467839  -0.60679612670577
C  0.64791433884631  -0.16253467485919  0.11359814644934
C  0.94910727769010  0.16404632191733  1.42365966640003
C  2.30889409063449  0.00672063052031  1.90181025194877
H  3.62643521956319  -1.69216306932335  -0.77554959460288
H  1.41736189217798  -0.83945597418257  -1.60610828455743
C  -2.36487389704022  2.75824846767448  -0.96133049596947
C  -2.97460975346395  3.75781395378973  -0.11052319446778
C  -1.93155220337987  3.40572970701455  -2.32813518277594
C  -2.89480355661791  5.10493054966015  -0.32997790249214
H  -3.23038147332188  3.30323695540550  0.84200835422000
C  -1.76860837791825  4.69080654746926  -2.52590353505389
C  -2.33375242017015  5.58090682722189  -1.56125911050420
H  -3.20128825000409  5.91470403972139  0.34003852283638
H  -1.28535899523301  4.96464165504721  -3.50867684927942
Cl  4.82713321890610  -1.11369130156082  1.85265393558758
N  -0.39531559498517  -0.21987349915176  -0.67901454830828
C  -1.56238760156786  0.38128065986005  -1.12341713191494
O  -2.15483098586330  0.07716487341340  -2.30289741652337
N  -2.00610979609999  1.57252211055490  -0.53442580040799
H  -1.80965712136120  2.59862049487034  -3.06169748338261
H  0.08282976433477  0.49173499485952  1.98555563669688
Cl  2.69936415629623  0.37649944396441  3.51900053489893

