%nproc=8
%mem=4000MB
#opt=(noeigen,calcfc,ts,recalc=5,maxcyc=200) freq B3LYP/SVP em=GD3BJ

ts-5542.gjf

0 1
Cl  3.78975150508387  0.88225119278981  -2.00918087681863
O  0.14353357955079  3.19477019669695  -1.00679359029655
C  3.75808756946516  2.22967395927399  -5.57826825746879
C  3.34079430478630  3.03748346738264  -4.51532969791235
C  2.17921880611932  2.38921354376829  -3.97484140961491
C  1.27131935306891  2.96971093010957  -3.07022704881564
C  1.83312781614579  1.26911408821293  -4.77044525546183
C  2.84239319540285  1.10323747973805  -5.71242432011870
H  3.72532124434181  3.91745817408811  -4.07292009155980
Cl  5.19496783774116  2.55374468649949  -6.40577518408072
N  0.74330362293594  3.06079721583282  -2.00827873816116
H  0.92984848973373  0.71680119856183  -4.59238914684237
Cl  3.07140834677428  -0.15579493674132  -6.77171376605094

