70
 energy: -143.131770490854 gnorm: 0.114045332007 xtb: 6.6.1 (8d0f1dd)
O    -3.53384909    -0.88596359     2.67946327
H    -4.36259029    -0.54094030     2.34258797
H    -3.42170515    -1.73550885     2.24930601
O    -1.73501246    -0.43332529    -0.52915473
H    -2.01974176    -0.16052811    -1.40313970
H    -2.48003592    -0.86989794    -0.11240248
O    -0.98768304    -0.13159137     3.57657708
H    -0.61232514    -0.99659047     3.75042077
H    -1.73254444    -0.40093731     3.03623218
O    -2.74285954    -2.99096213     0.69426817
H    -3.36049221    -3.10290472    -0.03053368
H    -1.87954994    -3.38419991     0.55498773
O     0.91830150    -2.76251402    -3.02550986
H     0.56145869    -1.90141846    -2.80075036
H     1.86253279    -2.61821160    -3.10882967
O     0.15435567    -2.48119805    -0.14891898
H    -0.23215498    -1.60578681    -0.20894100
H     0.75737618    -2.73381453    -0.85026814
O    -2.85301295    -3.27154950    -3.08302468
H    -1.99846945    -3.37812365    -2.66143864
H    -2.68300316    -3.19012855    -4.02313419
O    -4.63899259    -3.36872187    -1.14730075
H    -4.20735036    -3.33067539    -2.00262269
H    -5.45731803    -3.75501113    -1.46425593
O     0.30973810     0.20995748    -3.15715285
H     0.09266108     0.66108687    -2.33941302
H     0.48521408     0.87090308    -3.82923685
O    -3.15172645     0.22982518    -2.94985799
H    -4.08921392     0.03094165    -2.91984270
H    -2.94963894     0.86875005    -3.63562321
O    -1.27190696     2.44376696    -3.31171821
Cl    -0.93549142     4.11344324    -3.32467653
H    -1.12318220     2.05108445    -2.44323229
O     2.50233656     4.67718914     3.53185319
Cl     3.68286889     4.27137061     2.37305234
H     2.15736044     3.89494639     3.97870313
O     0.15413807    -2.70188864     2.51129825
Cl     1.03264325    -3.98183633     3.21210234
H     0.10587324    -2.75135527     1.54910820
O     0.78830917     1.80177350     3.83489321
Cl     1.07264130     1.92762582     5.50955057
H     0.06219624     1.16861836     3.78526804
C     5.11526821     0.20490426    -0.06719425
C     4.82149144     0.34049688     1.28411347
C     3.50799908     0.52219822     1.67322975
C     2.48335802     0.58355093     0.72284166
C     2.84454157     0.44166091    -0.61667666
C     4.14305246     0.22470505    -1.06299645
H     5.55330364     0.34109649     2.08116148
H     3.20341573     0.65662954     2.70529213
C    -2.04379177     2.47398098     0.97793406
C    -2.01875472     3.52862012     0.06197176
C    -3.20961463     2.26290581     1.71966278
C    -3.18817229     4.15866600    -0.34444463
H    -1.06401801     3.74857745    -0.38798671
C    -4.36079553     2.97393614     1.42254201
C    -4.35960688     3.76508590     0.28317236
H    -3.11622408     4.83038339    -1.18999440
H    -5.31431718     2.87791132     1.92490319
Cl     6.78579564     0.26044646    -0.52704409
Cl    -5.79182140     4.60440793    -0.25247678
N     1.17579635     0.82575214     1.17134602
H     0.97062970     1.00389245     2.14187549
C     0.17565858     1.39331194     0.39777340
O     0.31248335     1.65781605    -0.77293190
N    -0.90135220     1.68542242     1.21200478
H    -0.98615609     1.06826720     2.00432782
H    -3.20804622     1.53418222     2.52364259
H     2.07680611     0.71542861    -1.32208333
Cl     4.58723586    -0.19735645    -2.68469761
