70
 energy: -143.065757457625 gnorm: 0.086219333442 xtb: 6.6.1 (8d0f1dd)
O    -2.01637590     1.31207913    -3.21949695
H    -1.85901468     0.38754709    -3.01995755
H    -2.83701559     1.54885000    -3.65519035
O     3.82937327     0.20605335    -4.99025894
H     4.00917102    -0.19130624    -4.13637550
H     3.35138222     1.01518350    -4.80007208
O    -0.10757971     1.48505343     4.08285393
H    -0.15110401     2.27712092     3.54426936
H     0.05409736     1.93117840     4.91602342
O    -1.50290889    -3.46575612     3.68222240
H    -2.09482615    -2.75107508     3.92347736
H    -0.95954429    -3.17345522     2.94829220
O    -2.44628840    -4.80208728     0.91692735
H    -2.63075346    -4.44360484     1.78687113
H    -1.65118046    -5.31299416     1.07853068
O     0.67426125    -0.21293594    -1.88100357
H    -0.22997410    -0.44239605    -1.65954373
H     0.78763493     0.65677537    -1.49359153
O    -2.02011228    -1.69350698    -2.76123164
H    -1.08902792    -1.68353231    -2.98996699
H    -2.44214888    -2.34297637    -3.32639816
O     1.69894173    -3.03399368    -0.14317934
H     0.94965632    -3.42538520     0.30928306
H     2.34375879    -3.72901820    -0.28631695
O     1.95869967     2.13932556    -4.11403522
H     1.25931496     2.76483068    -3.91669552
H     1.62085948     1.34055162    -3.70518069
O     3.66411199    -1.81371134    -2.15196705
H     2.76902180    -2.09998059    -2.34223475
H     3.56313391    -1.07398462    -1.55034749
O    -4.20437316     0.00388020    -1.30694418
Cl    -5.12068064    -1.02070375    -0.30107613
H    -3.81801646    -0.61366335    -1.93936404
O    -0.64082568     4.32048260     2.33922063
Cl     0.15012805     5.32060274     1.20992149
H    -1.42458402     3.99219008     1.88256541
O    -4.42192993    -3.09629649     2.92416680
Cl    -4.82245345    -1.45642654     3.15125992
H    -5.18896703    -3.58853796     2.60803622
O     3.91252733     3.97927993     0.32407334
Cl     3.90407235     3.32185815     1.89534224
H     4.58174858     3.65784513    -0.29188985
C     5.53048910    -0.00238952     1.04851736
C     4.95285636    -0.40478163     2.24649210
C     3.60015888    -0.22694841     2.46620504
C     2.78749383     0.30921484     1.46171744
C     3.36287870     0.68776520     0.24906443
C     4.73670549     0.58141500     0.06551325
H     5.62661033    -0.84641774     2.96888258
H     3.08550738    -0.55321000     3.36324611
C    -1.91060368     1.64074104     0.83517746
C    -1.75476677     2.70425187    -0.05731179
C    -3.21531607     1.32018536     1.22095826
C    -2.85241067     3.41047171    -0.53281255
H    -0.75229301     2.92705486    -0.38559708
C    -4.28666495     2.09508557     0.80767434
C    -4.13650097     3.14938988    -0.08113146
H    -2.64900323     4.08736179    -1.35243469
H    -5.17236980     1.78840747     1.34829116
Cl     7.22370988    -0.24573885     0.76746050
Cl    -5.44453314     4.27050880    -0.35456181
N     1.41336959     0.43572109     1.71728293
H     1.23745560     0.46992186     2.70906885
C     0.47148155     1.05734947     0.91277111
O     0.74415591     1.52504345    -0.16711099
N    -0.82321635     0.92972049     1.37722954
H    -0.94457917     0.53291627     2.29574222
H    -3.46389317     0.55358908     1.94756931
H     2.70783864     1.06622510    -0.51882590
Cl     5.47361946     1.25900453    -1.34982397
