%nproc=8
%mem=4000MB
#opt=(noeigen,calcfc,ts,recalc=5,maxcyc=200) freq B3LYP/SVP em=GD3BJ

ts-748.gjf

0 2
O  -0.10822162613121  2.98150193273448  2.33048969604485
H  -0.09069326909672  3.38374200270732  1.40031393343751
C  1.61621899891016  0.54226032128174  1.20064818631461
C  1.49998116615886  -0.76417250822977  0.61664695466510
C  2.14543874478502  0.51123716237329  2.47961938052965
C  1.80836581957076  -1.93354675013062  1.29086181234393
H  1.01206822149027  -0.79703534790018  -0.37744479160683
C  2.39835596905796  -0.66652204277227  3.13468610104410
C  2.19479767337545  -1.96734995805696  2.64698095062018
H  1.74626780009756  -2.92099501906442  0.81603360685829
H  2.54320983157951  -0.54516980425875  4.20987124388281
Cl  2.06588081872494  -3.42237395247710  3.43067127323178
C  0.71421909609369  1.59605095850148  -0.75443709781203
O  0.36778408042605  1.89978483977449  -1.86932251802912
N  0.89745031249000  1.44605121245900  0.45133039497317
H  2.19514631541043  1.49267776344431  3.01476704244706

