%nproc=8
%mem=4000MB
#opt=(noeigen,calcfc,ts,recalc=5,maxcyc=200) freq B3LYP/SVP em=GD3BJ

ts-758.gjf

0 2
O  0.19537830809663  3.21189910147545  2.10318893186476
H  0.20784057443151  3.49075737780975  2.97445196391877
C  1.56267444157550  0.41670945768160  1.10218115517203
C  1.38558500976773  -0.91034792763794  0.64794700759718
C  1.99851891016821  0.49614216799126  2.40602186815702
C  1.51611036015901  -2.00597153840952  1.43783993171614
H  1.19017894486890  -1.10595575128816  -0.38837174321679
C  2.17270222406205  -0.53724433658048  3.23584661094522
C  1.79666798495819  -1.80253573394919  2.79410190360352
H  1.32914269973901  -3.01179954413136  1.05286248736019
H  2.28532227869138  -0.46623007819378  4.29860120241582
Cl  1.44960011560010  -3.01925394597297  3.84144741004126
C  0.35127625339445  1.95408836305563  -0.37340012959510
O  -0.42681592705049  2.49312226821255  -1.03353852733896
N  1.25842295321745  1.49158833467183  0.26700686147879
H  2.32400647003645  1.41826262315208  2.77405216155162

