%nproc=8
%mem=4000MB
#opt=(noeigen,calcfc,ts,recalc=5,maxcyc=200) freq B3LYP/SVP em=GD3BJ

ts-2056.gjf

0 1
C  2.46905152744382  -0.09278831130710  4.07365746810846
C  1.66310477518461  0.14809765943085  2.90872567508578
C  1.63288694442619  -0.96049489954160  2.04996407783756
C  2.34657778821956  -2.19426754564375  1.72984819427590
C  2.91869559106058  -2.39710684402753  3.15545373927291
C  3.09324990983176  -1.36768991649410  3.95626938709598
H  0.93666171973071  0.85626053676950  2.54202400711065
Cl  2.84919185441277  1.25548775374303  5.26408535765702
N  2.52163257776189  -2.91453575844909  0.69060869841389
H  2.74644913523044  -2.37081381669471  -0.08404864758370
H  3.59942203596099  -3.21651573694428  3.36198741625930
Cl  3.93063983689376  -1.79326483008763  5.46822547468891

