%nproc=8
%mem=4000MB
#opt=(noeigen,calcfc,ts,recalc=5,maxcyc=200) freq B3LYP/SVP em=GD3BJ

ts-2066.gjf

0 1
C  2.63051975486493  -0.49397291879194  3.74395147764318
C  1.79562950190686  0.00694408419800  2.68318939913325
C  1.46323470983672  -1.18261272426709  2.03409273665295
C  1.99905737709190  -2.50675708100694  1.94137453082036
C  2.93387993591083  -2.70751000068013  3.18485826782533
C  3.14621466772046  -1.74039162086199  4.03784020663673
H  1.51866581048882  1.10263898961722  2.65134698215816
Cl  2.96026295599094  0.57982831125682  4.79726681416960
N  1.88342446351719  -3.37762917344786  1.08768379123877
H  1.21342360626967  -3.02432260821345  0.37012291706986
H  3.09371306426358  -3.75594513881865  3.06838929019130
Cl  3.92847114024043  -1.92745268939817  5.72920136358030

