%nproc=8
%mem=4000MB
#opt=(noeigen,calcfc,ts,recalc=5,maxcyc=200) freq B3LYP/SVP em=GD3BJ

ts-2512.gjf

0 1
O  2.07416724557948  1.89477687644013  1.04004246089434
Cl  3.70242565613811  1.55059769114175  1.26602816278412
C  1.30276460169741  -2.44162579948132  -1.95183730615874
C  0.03681698573129  -2.11610428906036  -2.42393561757796
C  -0.36681765310727  -0.72408551138262  -2.44590629164099
C  0.58673498043477  0.32702352225696  -2.09608139256786
C  1.60842288090048  -0.15978427649424  -1.24712097016373
C  1.98273488417388  -1.45224590340774  -1.17289192360637
H  -0.46827847193716  -2.91902806986882  -2.93303936055184
H  -1.39286048548297  -0.47513942318339  -2.69514115564258
C  -0.69673424231742  3.51252361903414  -1.04107838880480
C  -1.41095394722525  3.55135284794007  0.18791530544666
C  -1.28516801267221  4.01978755125968  -2.22644131415504
C  -2.77003321702468  3.93810899628138  0.08423820689308
H  -0.95071172646483  3.24138926017569  1.10493872064580
C  -2.59541744381333  4.35650458459111  -2.41040692692991
C  -3.24266729193992  4.41216635746843  -1.11509068630823
H  -3.30223218945208  4.18797878254098  1.01210719546673
H  -3.07815672815085  4.45632032516716  -3.38303158952505
Cl  2.07075921908842  -3.96679459614113  -2.23986032546873
Cl  -4.93407652628985  4.73837276902621  -1.18295621276353
N  0.24370789256807  1.48760200650975  -2.45377139235573
C  1.24089524102140  2.49825698217756  -2.05958975954491
O  2.28673398616832  2.44401553946701  -2.61822666641996
N  0.69887345922293  3.25814613902977  -1.14107940938675
H  1.93310029853169  2.80568907634740  0.92403878234719
H  -0.68422850302965  3.89800658438261  -3.14576662573757
H  1.96606920562528  0.54050338284316  -0.50655427993995
Cl  3.35654630948743  -1.86276206994646  -0.23802282634303

