%nproc=8
%mem=4000MB
#opt=(noeigen,calcfc,ts,recalc=5,maxcyc=200) freq B3LYP/SVP em=GD3BJ

ts-4610.gjf

0 1
Cl  -0.39607311338499  -3.16851677054665  -2.07162368606023
C  0.70967880322291  -0.59967474427345  -2.97740376723053
C  1.19048618347144  -2.12197377820893  -2.36240503860141
C  1.73744910680236  0.41360329884247  -2.49172551631589
C  1.82355458944469  -2.04127593874600  -1.00031560956383
H  1.75527884949260  -2.58169222695934  -3.14537217335437
C  2.38257998659609  0.28018223447583  -1.30032658761219
C  2.32374771182266  -0.88394758511105  -0.47452603638942
H  1.57011232290722  -2.89181574534340  -0.42237245850566
H  3.01083033740459  1.07443223969790  -0.92725889702715
Cl  2.71851252764660  -0.69483255377326  1.26421486483190
N  -0.31418090209112  -0.72276749255593  -3.65979907449259
H  -0.51204507525199  0.01145649474714  -4.33591055177582
H  1.66480644828823  1.36949990876737  -2.97353205669754

