%nproc=8
%mem=4000MB
#opt=(noeigen,calcfc,ts,recalc=5,maxcyc=200) freq B3LYP/SVP em=GD3BJ

ts-4620.gjf

0 1
Cl  -0.53225537942037  -3.29247064980320  -1.60953276073057
C  0.62253500430172  -0.99362901579972  -2.77471082529771
C  0.98943427368757  -2.25323925259778  -1.89293866654807
C  1.27327334860777  0.27443385670319  -2.44112292154240
C  1.40436798693959  -1.80050467083176  -0.48099062098951
H  1.70569043411952  -2.93261938990015  -2.36554075949356
C  1.78843809358770  0.53720440209565  -1.23998952693791
C  1.71442943363436  -0.51530546048330  -0.28828902583262
H  1.23171582808382  -2.55363177775220  0.28124237983487
H  2.23971146957239  1.47160696345297  -0.97218684770119
Cl  2.55605219603192  -0.31092019579986  1.22097569174951
N  -0.20723270741876  -1.12776737971759  -3.76183545420833
H  -0.37881398395197  -0.43085283600760  -4.46345945023347
H  1.08503220844580  1.04974075294232  -3.17781557127103

