%nproc=8
%mem=4000MB
#opt=(noeigen,calcfc,ts,recalc=5,maxcyc=200) freq B3LYP/SVP em=GD3BJ

ts-4630.gjf

0 1
Cl  -0.58037497362507  -3.46779210926096  -1.78952496988581
C  0.30862081337940  -1.33358269884594  -2.57242811337808
C  0.65661010373073  -2.19690278957685  -1.48924768317669
C  0.51925765854639  0.07365915710114  -2.35775238694653
C  1.17607385635022  -1.64197428901156  -0.11739567431918
H  1.54609626286718  -2.78368855158650  -1.86057535391491
C  1.12156044244030  0.50689925315919  -1.21967072613081
C  1.44800272071374  -0.31671596344084  -0.10737337320620
H  1.61873588035897  -2.36576500026338  0.56300692403412
H  1.23760894898910  1.58520419496079  -1.11736181094273
Cl  2.39428478712296  0.28609352725475  1.27587290055051
N  0.01447475353277  -1.75744746871807  -3.80163481953422
H  -0.03099904336436  -0.99243898538268  -4.44806702645829
H  0.44923419114205  0.76330446005444  -3.18406011703012

