70
 energy: -143.132158394615 gnorm: 0.109733323700 xtb: 6.6.1 (8d0f1dd)
O    -1.19626377    -2.66298574     0.55143180
H    -2.09566018    -2.95126697     0.38615007
H    -0.82573902    -2.97721897     1.37805600
O    -1.27321866     2.81500074    -3.17543851
H    -0.57920860     3.12650126    -3.75909617
H    -0.92538865     1.98045353    -2.85624686
O    -1.26885455     1.08329027     4.21021627
H    -1.26171841     1.70969834     3.48433707
H    -1.71301723     1.48581264     4.95857021
O     2.27549165     4.56880731     3.70689936
H     2.82669343     3.85601509     3.37911462
H     2.33520694     5.27507113     3.06117189
O    -2.55478211    -0.45196819    -1.57270328
H    -2.09590848    -0.41696927    -2.41386275
H    -3.38406089     0.02916080    -1.58493868
O    -1.17373201    -0.50830687    -3.91806569
H    -0.35122577    -0.39950979    -3.43745704
H    -0.98679881    -0.57147871    -4.85636455
O    -3.92498192    -2.93568272    -0.40815497
H    -3.52410109    -2.31157674    -1.01571050
H    -4.75253498    -2.52535586    -0.15100445
O    -1.12642189    -3.40172336    -3.10637289
H    -1.41599926    -2.50409680    -3.27885382
H    -1.92684742    -3.90658861    -2.95220879
O     2.20092111     1.80119182    -1.59219337
H     1.89282188     1.43609312    -0.76085926
H     3.15436886     1.76822085    -1.49633871
O     1.58479524    -0.28935432    -3.57744664
H     2.37611916    -0.82682008    -3.64283277
H     1.89073542     0.37434162    -2.95676427
O    -3.81872046     2.05406154    -2.62718316
Cl    -4.61071312     2.10045399    -4.13441823
H    -2.90767043     2.34933671    -2.74288463
O     2.38636680     3.46439601     0.69950480
Cl     1.23615745     4.71948846     0.75359777
H     1.94718043     2.61128490     0.79902298
O    -0.32070090    -1.68657301     3.32285429
Cl     1.32190392    -1.92885147     3.70274164
H    -0.57177243    -0.84948679     3.73130978
O    -0.20593341     3.40145846     3.94535998
Cl    -1.37480898     4.32004277     4.77668037
H     0.61265404     3.88445512     4.11033537
C     5.07756576    -2.09022800    -0.63900219
C     4.01571828    -2.93604013    -0.93532043
C     2.70295539    -2.61687164    -0.64467611
C     2.45330688    -1.38981664    -0.02105553
C     3.50417650    -0.50760825     0.22849810
C     4.82163554    -0.85953839    -0.04140670
H     4.17508954    -3.94590734    -1.28972699
H     1.85131463    -3.24092617    -0.89218270
C    -1.73986395     1.07336228     0.80418256
C    -1.34351675     2.40815799     0.68969783
C    -3.07382737     0.79395964     1.11455793
C    -2.30936615     3.38396581     0.90089334
H    -0.33183375     2.73840194     0.51706396
C    -4.01678120     1.79196347     1.29864686
C    -3.62259325     3.12126486     1.25795094
H    -2.01298005     4.42369110     0.85127688
H    -5.03360030     1.46455331     1.47090404
Cl     6.72779981    -2.41623436    -1.05811571
Cl    -4.56883092     4.49790054     1.76007481
N     1.14260959    -0.99633055     0.29003351
H     0.52685485    -1.77556961     0.11860609
C     0.51618846     0.14775114     0.75852886
O     1.10682752     1.15692421     1.06176069
N    -0.85490168    -0.02063588     0.76185479
H    -1.26754166    -0.90538187     0.51125387
H    -3.41042567    -0.21492061     1.32970037
H     3.21462961     0.41595730     0.70300238
Cl     6.12822248     0.20612693     0.36175263
