%nproc=8
%mem=4000MB
#opt=(noeigen,calcfc,ts,recalc=5,maxcyc=200) freq B3LYP/SVP em=GD3BJ

ts-1330.gjf

0 2
O  -1.11091611558126  -4.56733637325072  -1.22150738830765
H  -1.49956727025130  -4.98749634412865  -1.94138294464128
C  1.94488948152871  3.47601445435302  2.96491103076885
C  2.19748470481030  2.61965063090215  1.89541431924752
C  1.30301283188565  1.96437816183418  1.07583585450314
C  -0.15761838675882  2.34811108553816  1.09271575533864
C  -0.41990870617506  3.03013255863679  2.33953256373224
C  0.54514479392507  3.61966121429998  3.18077856757913
H  3.23048959403916  2.33998394461782  1.73035513530160
H  1.74692965978727  1.27641331282401  0.36717086947801
C  -1.20238986593386  -0.47595942489293  -1.95058139375500
C  -2.36285222337928  -1.27638004541422  -2.06016202392569
C  -0.04687388791090  -1.04960743989975  -1.45742670932713
C  -2.20974968112046  -2.64003771592975  -1.95617156189450
H  -3.19702672022055  -0.90175782597176  -2.58288907212249
C  -0.09758963929171  -2.36137027544915  -0.97201705872649
C  -1.15054749912942  -3.17324964276896  -1.32901153892914
H  -3.07085820525977  -3.27207823769188  -2.23134280103166
H  0.82458149518766  -2.71525542247232  -0.58100061986596
Cl  3.43032624226110  4.53101499541824  3.35740566508572
N  -1.02497862526414  1.82340234030158  0.30111823220854
H  -2.01536761959847  1.91892789475778  0.46808054576462
C  -0.95032901742579  2.04692563376734  -2.23932768665773
O  -0.34668960543518  2.98028184685672  -2.37014343126782
N  -1.20450471182219  0.84718190037380  -2.23738655054442
H  0.97797992161435  -0.58929072513066  -1.42318755815937
H  -1.45755666710782  3.15608580077800  2.61824025908848
Cl  -0.19946268682555  4.21928361309775  4.55962637212263

