70
 energy: -143.149921776942 gnorm: 0.100627185603 xtb: 6.6.1 (8d0f1dd)
O     0.69896816    -2.69870317     3.11005629
H     0.57962830    -2.02526850     2.43805795
H     1.24343148    -3.39666597     2.74161863
O    -1.71210151     1.17259344     1.34857857
H    -1.80395060     1.72810215     2.12466659
H    -2.50412060     0.63603042     1.41295218
O    -2.10221702    -3.02251004    -0.20280925
H    -1.66023533    -2.70210489    -0.99105498
H    -1.43907372    -3.66550705     0.05435640
O     0.09270727    -0.68062630     1.36682589
H    -0.33703980     0.17631193     1.34912554
H    -0.33339652    -1.16981338     0.66080180
O    -2.72942118    -1.03938524     3.26980641
H    -3.61909725    -1.28804400     3.01293193
H    -2.28107845    -1.88657333     3.29428588
O     2.96509735    -1.13279626    -2.10195766
H     3.23709179    -0.32750403    -2.54564836
H     3.79370436    -1.59769501    -1.97304285
O    -0.21248291    -1.15911165    -1.68480830
H     0.58014014    -1.20395890    -2.22246513
H    -0.49360444    -0.24244959    -1.69112787
O     0.28356336    -0.11586558     4.70321431
H    -0.47274192    -0.52734215     5.12514740
H     0.83372802    -0.81815773     4.35187246
O     0.58224573     1.13542997    -3.51440834
H     1.36292710     1.60075863    -3.20888512
H    -0.04624650     1.34628087    -2.82167662
O    -1.58140652     1.16243863    -1.48815392
H    -2.43814226     0.77867342    -1.68326023
H    -1.56495979     1.24630686    -0.53314925
O    -3.52350239    -0.96212260     0.58969148
Cl    -5.00780134    -1.42314960    -0.10706741
H    -2.90852590    -1.66851413     0.35860417
O     0.11728642     2.28943232     3.44653168
Cl     1.27721139     3.08077506     4.41064547
H     0.07921633     1.41303969     3.84787160
O     2.34314330    -2.66339006     0.40986098
Cl     1.11767725    -3.75313417    -0.05041563
H     2.03838244    -1.75308831     0.31468917
O    -3.75744832     1.06578692     4.61097701
Cl    -3.59670792     2.54641702     3.78450387
H    -3.17280200     0.40366909     4.22319261
C     4.93446947    -0.42687845     0.64794447
C     3.97848702    -0.46478980     1.65560653
C     3.01677748     0.52742461     1.63787782
C     2.96265298     1.59336977     0.73359777
C     3.88894360     1.55538778    -0.30824609
C     4.84709254     0.54876493    -0.34084399
H     3.98805091    -1.23722466     2.41329239
H     2.33374265     0.43634519     2.47523287
C    -0.97247190     4.02380190    -0.88244987
C    -0.67026052     4.46723933    -2.17237589
C    -2.31549632     3.88098059    -0.52224887
C    -1.63694293     4.75850689    -3.12650270
H     0.38930008     4.54224064    -2.35696247
C    -3.26441596     4.03969207    -1.51895575
C    -2.95512546     4.48743555    -2.79486635
H    -1.37451135     5.17310291    -4.09116590
H    -4.28231195     3.89324786    -1.18245464
Cl     6.12270464    -1.66809512     0.41840815
Cl    -4.11674480     4.72128022    -4.07493557
N     1.84429707     2.43975263     0.78310747
H     1.36761853     2.40332619     1.67035346
C     1.19824143     2.95873668    -0.32778495
O     1.66933364     2.96569471    -1.44010599
N     0.00444385     3.56092399     0.01930487
H    -0.26047553     3.37479128     0.97377877
H    -2.48416142     3.54531139     0.49574052
H     3.84254664     2.31744697    -1.06921791
Cl     6.10869142     0.42944640    -1.52384047
