%nproc=8
%mem=4000MB
#opt=(noeigen,calcfc,ts,recalc=5,maxcyc=200) freq B3LYP/SVP em=GD3BJ

ts-5653.gjf

0 1
O  -3.48128642650507  2.00520718356074  1.48051638039863
H  -2.96959121907158  2.77534193668213  1.95183759309179
Cl  -4.69477338829762  1.37212960929820  -1.29271760422963
Cl  -0.88132555770489  2.28773957700426  2.04946066253483
C  -3.11610717825317  0.90464235382205  -0.77378881340852
C  -2.79460666608063  1.60411973563690  0.41718288663376
C  -1.31580648143928  2.03602694738528  0.35413793529111
C  -0.47510530548331  1.14169338405119  -0.42037087622706
C  -0.90587628773290  0.48009582484628  -1.58206405287363
C  -2.26206381076806  0.22048388705411  -1.61112846987883
H  -1.21330447072422  3.05398648555149  -0.03110185445615
C  3.24850160710213  0.25296323562771  2.01961580130247
C  3.52470864797442  -0.60803037080916  3.02333531791301
C  4.36272669228947  0.87812865174389  1.38368997241238
C  4.71924274042852  -1.35872617855950  2.80679609233387
H  2.78851050340069  -1.01539239069299  3.68073719219083
C  5.46988536861372  0.20885722767240  1.11113334442209
C  5.71631942387130  -0.92638139057681  1.92905532434849
H  5.06332927269777  -2.21564055685359  3.36622978537457
Cl  6.56853641823204  0.56512128662980  -0.12164003441611
Cl  7.05898406647307  -1.92421584516437  1.59918440325418
N  0.74159947527845  1.29284333534048  0.00354771557304
C  1.61414304282407  0.27214750299329  0.51577299360576
O  1.62701589558554  -0.85818842980504  0.18515567062968
N  2.22274895705438  0.91391963619107  1.52691604331965
H  -0.21783896836117  -0.29128510034599  -1.95903742428796
Cl  -3.17869842586212  -1.27874678910623  -2.13469637796919

