%nproc=8
%mem=4000MB
#opt=(noeigen,calcfc,ts,recalc=5,maxcyc=200) freq B3LYP/SVP em=GD3BJ

ts-5683.gjf

0 1
O  -4.70959059246538  2.65217531276315  0.48750580423974
H  -4.63581986393699  2.54495424372663  1.49981502364111
Cl  -4.91374117126368  1.64171173512170  -1.89958522171641
Cl  -1.69449589628771  -0.27489201152179  3.84624968852272
C  -3.45960970401548  2.11438061618922  -1.33976887253636
C  -3.45708489078086  2.47818293874249  -0.01700182221351
C  -2.21553748886900  2.68648160051835  0.58528894897804
C  -1.02973104818351  2.38036315833345  -0.15662322099993
C  -1.22022191092452  1.61396279541140  -1.36351747421948
C  -2.33841191615997  1.70280071910515  -2.04924328881357
H  -2.07831251793716  3.07197016000983  1.60967706290149
C  3.29728918200050  1.29481962435326  1.45381538711646
C  3.21523999456773  0.35076685665599  2.57366856993364
C  4.50593719379813  1.13030403975782  0.90510818347467
C  4.15290481055793  -0.66136563043705  2.71850155829379
H  2.21786385039226  0.26621749877823  2.93507121462181
C  5.52406463527162  0.30552340477092  1.15366861301739
C  5.46169448561725  -0.68319005001540  2.06228477462541
H  4.01672043996717  -1.30088535773848  3.62789416443023
Cl  6.98505276174757  0.56716515137174  0.22473330205247
Cl  6.66354604827880  -1.93960530835976  2.55637088904636
N  0.30025895070584  2.37321636611100  0.12224389374515
C  1.04447802401960  1.80394909950737  1.03249541135108
O  0.65971932286212  0.92727867851928  1.90524679237175
N  2.34204113651115  2.00077967975934  0.83387985795083
H  -0.31714318033857  1.45172773790399  -1.91244798133393
Cl  -2.57353745736380  1.05265515501814  -3.62027430393279

