70
 energy: -143.142492653710 gnorm: 0.125816720676 xtb: 6.6.1 (8d0f1dd)
O    -2.96851159    -1.44340237     3.67413502
H    -3.19034467    -2.24639984     4.14881719
H    -2.88731014    -1.87925476     2.82397168
O    -3.87897642    -1.53856977    -1.85475956
H    -3.55392835    -0.72548268    -2.24536414
H    -4.21920674    -1.24849362    -1.00656310
O    -0.94203632    -0.12314223     2.46166825
H    -0.43680410    -0.75692765     1.94942313
H    -1.77412442    -0.36778331     2.87046954
O    -2.74812860    -2.55493885     1.14409115
H    -3.30018153    -3.12801029     0.60914662
H    -2.20365396    -3.21804625     1.57207995
O     1.20505193    -1.91504033    -1.78993561
H     0.49608792    -1.39343490    -1.40962390
H     1.54432417    -1.42673886    -2.54212849
O     1.61982611    -3.82720528     0.14879111
H     1.69335954    -3.12050787    -0.49503307
H     1.86267036    -4.69844644    -0.16949331
O    -1.68655895    -3.63259507    -1.63071928
H    -0.89543465    -3.13206516    -1.42352468
H    -1.98005433    -3.20576616    -2.43757498
O    -4.04674417    -3.88521216    -0.59872110
H    -4.72634742    -3.46134159    -1.12579922
H    -3.19710481    -3.94406538    -1.03915926
O    -1.02172853    -0.98286546    -0.56471444
H    -1.46559683    -1.55588477     0.06295459
H    -1.62190283    -0.26836449    -0.78520703
O    -2.87477984     1.14388249    -1.37313309
H    -2.03101337     1.53714624    -1.60278522
H    -3.58107622     1.76749778    -1.55086230
O     0.44263015     1.76948907    -3.03286355
Cl    -0.70591431     2.68812789    -3.89199717
H     0.58195241     2.09736818    -2.13638656
O     0.86497752     4.60592534     2.08700695
Cl     1.54646190     5.35238978     3.45796813
H     1.44723007     4.85344980     1.35878946
O     0.06003367    -2.78961485     1.83732592
Cl     0.53584756    -3.27841645     3.39804305
H     0.56388250    -3.36707811     1.25144310
O     0.56040830     0.70703562     4.72322307
Cl     2.02692452     0.46812679     3.89050849
H    -0.02254187     0.12109546     4.22579840
C     4.80612790    -0.40862946    -0.45901249
C     3.97148182    -1.11068351     0.40192231
C     2.74262451    -0.66494512     0.85015891
C     2.33659085     0.61926602     0.47223117
C     3.23897119     1.43337412    -0.21175228
C     4.43697350     0.91363596    -0.68826504
H     4.29656595    -2.08935823     0.72956704
H     2.00443309    -1.30205840     1.32466459
C    -1.86515411     3.20505392     0.77291577
C    -1.63882914     4.27809056    -0.09267471
C    -3.18435304     2.92162821     1.13793800
C    -2.70771635     4.95110588    -0.67077510
H    -0.64052916     4.50863764    -0.42825068
C    -4.26024291     3.60174616     0.59116300
C    -4.00504525     4.56121198    -0.37753821
H    -2.53299996     5.74888140    -1.38096072
H    -5.27295579     3.30831871     0.83427621
Cl     6.16555891    -1.19035378    -1.19797333
Cl    -5.35645103     5.31443987    -1.18312501
N     1.18100330     1.18113243     1.03655259
H     0.79268729     0.68322334     1.82207915
C     0.35850463     2.11193920     0.42180959
O     0.67428579     2.62005224    -0.62763682
N    -0.83079626     2.30679383     1.09697517
H    -1.16321459     1.59199188     1.72499132
H    -3.37205390     2.15264160     1.88013208
H     3.01469244     2.48029078    -0.33677065
Cl     5.55128709     1.93929302    -1.53187767
