70
 energy: -143.154267209703 gnorm: 0.125828790995 xtb: 6.6.1 (8d0f1dd)
O    -0.05202551    -0.47456848    -0.41064824
H     0.57401228    -0.95689028    -0.95358506
H    -0.89751946    -0.48957552    -0.86259234
O    -2.52007557    -0.15615417    -1.11618202
H    -2.68432036    -0.68390073    -1.89966527
H    -2.52626375     0.78674379    -1.29008779
O     0.02270463    -1.74553140     2.00789075
H     0.87621408    -2.12019092     1.78318988
H    -0.05495742    -0.99501054     1.41626130
O    -3.52606996    -0.82631152     1.50757679
H    -3.38994791    -0.56070557     0.59638897
H    -3.56988580    -1.77690787     1.39016629
O    -0.63518141    -3.82457707    -4.27260619
H    -1.56967141    -3.90236029    -4.47264971
H    -0.18987547    -4.07125007    -5.08512890
O     1.17607325    -2.44628791    -2.21958700
H     1.18523724    -1.77256180    -2.90175056
H     0.72754848    -3.18161718    -2.64084209
O    -2.29484365    -3.04615803     1.03184976
H    -1.82259468    -3.84345508     0.78560646
H    -1.69029966    -2.45410190     1.48277625
O    -1.66108904     0.14094079     3.17933193
H    -2.47759459    -0.07178327     2.72391416
H    -1.14123551    -0.66419519     3.15026538
O     0.56990031     0.21816857    -3.28068903
H    -0.14923796     0.75582206    -3.61700356
H     1.01918007     0.70958257    -2.59076309
O    -2.31428841    -2.76643167    -2.25918931
H    -1.44285045    -2.96888923    -2.60407355
H    -2.29662848    -2.93024607    -1.31463054
O    -2.24231254     1.83635139    -2.65931520
Cl    -3.36018190     3.04849370    -3.08621255
H    -1.61274469     2.35753937    -2.14687611
O     1.00706095     2.01831286     3.71554701
Cl     2.11946449     2.96110907     4.59580739
H     0.18507493     1.87691361     4.20024520
O     2.14928740    -2.11644899     0.43633059
Cl     3.34056981    -2.96787149     1.30643963
H     2.12813994    -2.52712312    -0.43630088
O    -1.40368685     1.97505322     4.87997935
Cl    -2.04480625     1.85922973     6.45373654
H    -1.88826553     1.34904449     4.32872202
C     5.07021043    -0.27912374    -0.09220415
C     4.86719754     0.03567758     1.24585726
C     3.66496723     0.61916680     1.59781114
C     2.78755857     0.97385787     0.56764654
C     3.11790621     0.82950744    -0.77954641
C     4.21590382     0.05626650    -1.13857444
H     5.54718285    -0.20558877     2.05223522
H     3.32778517     0.76469732     2.61816627
C    -1.64174664     2.90030826     0.48210735
C    -1.43756878     4.02692799    -0.31846548
C    -2.90310757     2.75700061     1.06716176
C    -2.49860417     4.84107180    -0.69402275
H    -0.46960739     4.14209075    -0.77906758
C    -3.92589298     3.64657010     0.78143736
C    -3.75241834     4.68208212    -0.12504150
H    -2.28909410     5.61105522    -1.42516314
H    -4.85043004     3.35710800     1.26334397
Cl     6.46587688    -1.15948057    -0.62351901
Cl    -5.03601344     5.81463114    -0.46020744
N     1.53380599     1.42345044     1.00980707
H     1.30929436     1.39938609     1.99203421
C     0.57964294     1.98739479     0.17772906
O     0.75311505     2.30118422    -0.97582108
N    -0.58542460     2.07633822     0.91458732
H    -0.77163458     1.36288351     1.60172360
H    -3.10582946     1.95394121     1.76817779
H     2.48575443     1.23724432    -1.55162134
Cl     4.65376512    -0.07220584    -2.81103417
