%nproc=8
%mem=4000MB
#opt=(noeigen,calcfc,ts,recalc=5,maxcyc=200) freq B3LYP/SVP em=GD3BJ

ts-5502.gjf

0 1
Cl  3.67232416337844  1.40125817138635  -3.13905205386630
O  0.00466178887225  3.85470414949256  -1.84169824704502
C  3.24947359429101  1.23240744714848  -5.94728255876622
C  2.89143621157467  2.07000172236922  -4.76035193884926
C  1.37806865498699  1.96325813212598  -4.65147250729841
C  0.71650169325023  2.41972818033586  -3.49277809232637
C  0.99414399802351  1.12873056276513  -5.69924198060408
C  2.08282434006920  0.77204678488614  -6.48123347409917
H  3.26029788087893  3.06297602889060  -4.98512337060004
Cl  4.89335021665507  0.68490426024315  -5.97877744624550
N  0.45981493434915  3.16146081719246  -2.65894961021714
H  -0.02236231711080  0.85261567469392  -5.89192436947374
Cl  1.77884431517826  -0.19799989099501  -7.88192917247998

