%nproc=8
%mem=4000MB
#opt=(noeigen,calcfc,ts,recalc=5,maxcyc=200) freq B3LYP/SVP em=GD3BJ

ts-5512.gjf

0 1
Cl  3.79037198304087  1.31199821838105  -3.09975137185125
O  0.22843217872468  3.67668899294033  -1.52835345473241
C  3.39220829752173  1.24357904211257  -5.70577830809751
C  3.02375298265117  2.03512315714335  -4.46225383703424
C  1.47622468540970  2.01064622930869  -4.54168238229776
C  0.69889122205840  2.56170101334225  -3.55098072546496
C  1.11795327459212  1.41346072552066  -5.77795662362618
C  2.29013886569316  1.01036599118637  -6.43244022993272
H  3.33043058552828  3.08673580142188  -4.51126611806872
Cl  5.05521695122910  1.24426422316516  -6.05256252263316
N  0.52514565193956  3.10751268760522  -2.51749426752581
H  0.12326720849777  1.24096553157860  -6.08608653272112
Cl  2.17655666891399  -0.17872718876934  -7.57246646418677

