%nproc=8
%mem=4000MB
#opt=(noeigen,calcfc,ts,recalc=5,maxcyc=200) freq B3LYP/SVP em=GD3BJ

ts-5522.gjf

0 1
Cl  3.80428572061376  1.18424085461567  -2.81886605993644
O  0.26711320835347  3.37908702454573  -1.23111904695317
C  3.53923090767340  1.73147773104886  -5.61696964691302
C  3.07494984211653  2.47690191929964  -4.53936055660791
C  1.69667454960571  2.29051261907418  -4.40362111109940
C  0.87553381585352  2.89053209473328  -3.45683893465950
C  1.33260384890817  1.26736006965559  -5.36016374494098
C  2.52747475438892  0.92089856027245  -6.07096536479230
H  3.60801503432271  3.32348380708418  -4.06727581387097
Cl  5.05344804138834  1.61465550104246  -6.19013998396123
N  0.64914934722190  3.16661312582153  -2.33153880785911
H  0.35634218758377  0.81736212268831  -5.43319495879302
Cl  2.63706042477903  -0.17392376760961  -7.47444370033794

