%nproc=8
%mem=4000MB
#opt=(noeigen,calcfc,ts,recalc=5,maxcyc=200) freq B3LYP/SVP em=GD3BJ

ts-5552.gjf

0 1
Cl  3.85683946493911  0.65082973850417  -1.55259857360230
O  0.04482558644785  3.18580719152512  -0.93417964799036
C  3.96825817149871  2.37867267928661  -5.28665294532880
C  3.39849922218650  3.23528559378008  -4.28897773750792
C  2.22441294453025  2.56785579436683  -3.78777371249801
C  1.49101534011993  2.92318467192415  -2.71764384444822
C  2.11916151172752  1.35933687534265  -4.47913877102887
C  3.18202681009448  1.21658711317636  -5.36930852848650
H  3.75731547323577  4.19793227951565  -4.11384444433848
Cl  5.04661133591195  2.95031497695187  -6.39585311388986
N  0.71975548065017  2.97737667594515  -1.86462960258304
H  1.33622237085173  0.64977959617979  -4.49254450206769
Cl  3.23383366255869  -0.19565493159916  -6.49324858799800

