70
 energy: -143.156241168280 gnorm: 0.127040931063 xtb: 6.6.1 (8d0f1dd)
O     0.19188122    -1.24437115     2.56240681
H     0.64656515    -2.08847060     2.55257434
H    -0.15331654    -1.04166048     1.69115164
O    -3.42315129     0.11476818    -2.17481649
H    -3.03177068    -0.75539434    -2.26956460
H    -2.69446538     0.71944100    -2.02406608
O    -2.08617464    -2.51372165    -1.68240648
H    -1.37142529    -3.03373956    -1.31085116
H    -2.69947235    -2.47541462    -0.94637872
O    -0.91146087    -0.79974365    -0.10685177
H    -0.23404557    -0.12209054    -0.14197674
H    -1.13908174    -0.81680119    -1.03810697
O    -3.23073711    -0.41574869     1.28472013
H    -4.08712082    -0.41159103     0.85352546
H    -2.58273638    -0.45982832     0.57939032
O     2.16823375    -0.88884360    -1.54294380
H     1.30026007    -1.04397437    -1.91963215
H     2.03083370     0.04246829    -1.36095796
O     0.05082225    -3.76952899    -0.20830874
H     0.73811813    -3.10255996    -0.16232918
H     0.07749811    -4.14718369     0.67260211
O    -1.20784254     0.54800988     4.92507371
H    -1.67949986     1.19280446     4.39486857
H    -1.14202746    -0.26421203     4.41980103
O     1.09019726     1.22916202    -4.32335298
H     1.92854877     0.83147678    -4.08179185
H     1.12148031     1.91643239    -4.99119924
O    -0.29352699    -0.62336717    -2.82360012
H     0.10286961    -0.01028118    -3.44515754
H    -0.55768653    -1.40883391    -3.30588637
O    -5.39468380    -0.44233359    -0.41865668
Cl    -5.89318290     1.12141338     0.03670719
H    -4.77633152    -0.30357528    -1.14596198
O     0.39590517     2.38261373     3.82634396
Cl     0.05898591     3.68322957     4.87326731
H     0.10832981     1.67435710     4.41478262
O     2.33665302    -2.39687183     0.81437442
Cl     3.83159210    -3.18989025     1.00787567
H     2.52745776    -1.85779932     0.03746998
O    -2.38510136     1.52308927     2.76398263
Cl    -3.79902727     2.43489914     2.49831915
H    -2.58904399     0.70162624     2.30117168
C     5.72408421    -0.35360620     0.44341011
C     5.24972607    -0.21045491     1.74156827
C     4.08467480     0.46530508     2.05091100
C     3.36151077     1.07179589     1.01839295
C     3.91309379     1.06539732    -0.26247031
C     5.07412701     0.36072187    -0.55884155
H     5.79549616    -0.63675120     2.57297756
H     3.83741640     0.58988381     3.09940465
C    -0.95323415     2.98131692     0.17335766
C    -1.21482374     2.50561952    -1.11394968
C    -1.68449919     4.01814547     0.75995378
C    -2.33743992     2.97548175    -1.78374953
H    -0.68189472     1.70016148    -1.59310513
C    -2.65397075     4.63382415    -0.01472479
C    -2.99046678     4.06837596    -1.23583951
H    -2.71174929     2.62777541    -2.73786060
H    -3.14096368     5.54107405     0.31773046
Cl     7.20797598    -1.21703331     0.20306162
Cl    -4.34402723     4.78358239    -2.07188597
N     2.21186154     1.81297709     1.33222735
H     1.97201681     2.07344070     2.27583103
C     1.19501010     1.90973281     0.39549601
O     1.25094456     1.45389120    -0.72178373
N     0.08988678     2.49396363     0.98339915
H     0.07852400     2.72423725     1.96456832
H    -1.41114734     4.46395251     1.71072128
H     3.40063970     1.66119009    -1.00029600
Cl     5.54889504     0.30019427    -2.22505913
