70
 energy: -143.140966870072 gnorm: 0.101061637437 xtb: 6.6.1 (8d0f1dd)
O     0.82527764    -0.33462709     2.66090419
H     0.03786520     0.17337001     2.45778203
H     1.16047815    -0.78882367     1.88586563
O    -2.15711333    -0.54933199    -2.73772987
H    -1.21670014    -0.61385759    -2.56223547
H    -2.74952901    -0.76075356    -2.01407066
O    -0.09142686    -3.12952991     2.35966625
H     0.33631294    -2.28182818     2.49300433
H     0.56792791    -3.62880353     1.87457295
O    -1.61112359     0.30971902     0.72086247
H    -1.32239008     0.17265857    -0.18312114
H    -2.39551506    -0.24087409     0.75112320
O    -4.19664441     0.05491614    -1.04578121
H    -4.13102122     0.93862295    -1.41197115
H    -4.72182414     0.00866746    -0.24491579
O     1.24899375    -1.11909552    -0.29558955
H     1.28274935    -0.62824069    -1.11854768
H     0.48757545    -1.69252796    -0.39930487
O    -2.87852544    -2.57652382     1.83270015
H    -2.38023044    -3.24361735     2.30812181
H    -2.69168034    -1.78872008     2.34630776
O     1.20942678     0.24780122     5.37509361
H     1.89100278    -0.27694503     4.95149746
H     0.38831495    -0.08259006     5.00637491
O     0.63632643    -0.34394563    -2.79985117
H     0.70458217     0.56849999    -2.51328052
H     1.02410117    -0.47952794    -3.66621484
O    -1.18282015    -2.38871296    -0.30278604
H    -1.48363931    -3.28643242    -0.45426519
H    -1.66988217    -2.12980444     0.48148130
O    -2.28282934     1.45533736    -4.53239620
Cl    -3.76427132     2.25970971    -4.77627523
H    -2.48972914     0.59060444    -4.15820927
O     0.91062825     2.28234710     3.71108766
Cl    -0.05224082     3.17069732     4.79961038
H     1.20321209     1.51000975     4.20956214
O     2.32753818    -2.96150864     1.11352321
Cl     3.94140950    -3.41511155     0.81214706
H     2.10837945    -2.28001842     0.46689607
O    -3.05224048     0.95693388     2.84953474
Cl    -2.37585659     0.84299896     4.40860001
H    -2.33369447     1.05233910     2.21299916
C     5.07726745    -0.41515874    -0.48485819
C     4.91104605    -0.42707502     0.89461677
C     3.99924095     0.36675447     1.56404581
C     3.17691110     1.18831607     0.78577776
C     3.38578063     1.20915043    -0.59293001
C     4.40843085     0.53534652    -1.25063551
H     5.59943990    -1.02585690     1.47634622
H     3.90471892     0.28718647     2.64141765
C    -1.24925037     3.29967766     0.75760824
C    -1.79098692     2.85423275    -0.45068719
C    -1.97373051     4.20831186     1.53437693
C    -2.97364738     3.42131934    -0.90828589
H    -1.26442590     2.23717855    -1.16085875
C    -3.17639725     4.73739643     1.09537287
C    -3.67425483     4.33328220    -0.13463202
H    -3.28698515     3.27982326    -1.93450882
H    -3.83376232     5.40417759     1.63765057
Cl     6.36936821    -1.36165231    -1.14805819
Cl    -5.07495788     5.08088842    -0.85694485
N     2.08205945     1.96086591     1.20291290
H     2.07351362     2.42607737     2.09692635
C     0.87665674     1.99715575     0.51990365
O     0.67650066     1.48752778    -0.55687452
N     0.02709172     2.87164414     1.16933634
H     0.24584518     3.16393446     2.10878371
H    -1.63300917     4.61699410     2.48005756
H     2.81537271     1.93352067    -1.15139899
Cl     4.85197673     0.91267417    -2.88349814
