70
 energy: -143.146836464917 gnorm: 0.119659557154 xtb: 6.6.1 (8d0f1dd)
O     1.48315227    -3.27519193    -0.32992826
H     2.18063981    -3.72712667     0.14819739
H     1.82661724    -2.99589816    -1.18043721
O    -1.39211418     0.79154545    -2.94918108
H    -0.78429649     0.51606742    -2.26069847
H    -0.85593901     0.87451472    -3.73973175
O    -0.88551325     0.83964845     3.07855363
H    -1.73997800     0.61391928     3.45040703
H    -0.27185703     0.10321064     3.09913888
O    -3.20102111    -0.20538426     3.39129590
H    -4.13573927    -0.23951586     3.60218916
H    -3.17166099    -0.58200219     2.51002671
O     1.74908669    -1.64868963    -2.74669814
H     0.89356910    -1.51661446    -3.15899051
H     2.04114504    -0.75217375    -2.57263122
O    -2.84336174    -2.55864620    -2.29297449
H    -2.85502961    -3.49891910    -2.10565469
H    -3.72199365    -2.17854482    -2.23941748
O    -0.70402336    -1.53882290    -0.62505034
H    -0.03767973    -2.22375966    -0.54640399
H    -1.34057694    -1.92491704    -1.22926010
O    -5.42733604    -1.80185632    -2.21147047
H    -5.25609842    -1.48861228    -1.32158620
H    -5.41894648    -1.06683459    -2.82710769
O     1.50705940     0.74650142    -3.80612569
H     1.20108519     1.26552208    -3.06024639
H     2.41626582     1.03417024    -3.90576581
O    -2.92879254    -0.71267806     0.82793354
H    -3.01703401    -0.52402462    -0.10799469
H    -2.03555787    -1.06115674     0.83365397
O    -3.83892243     0.55107526    -1.49271433
Cl    -5.31524138     1.32523714    -1.84245419
H    -3.24311560     0.55665850    -2.25137727
O     1.90038804     0.54337347     3.87844086
Cl     3.47291876     1.16849112     4.07219253
H     1.35831870     0.72325474     4.65586653
O     0.43257087    -1.62005969     2.66117001
Cl     1.13037534    -2.84176457     3.62120642
H     0.52555864    -1.91463400     1.74729618
O    -1.01297859     3.23333730     4.38106670
Cl     0.17238616     3.40650448     5.59188641
H    -0.87157755     2.34967240     4.02088598
C     5.33130090    -0.28880684    -0.08536699
C     4.60891106    -1.00818449     0.85875756
C     3.32945664    -0.56557716     1.13585686
C     2.76645699     0.55317417     0.51270544
C     3.52959003     1.22852193    -0.43936011
C     4.78434365     0.76275607    -0.81493563
H     5.18322342    -1.80724437     1.30876145
H     2.70138025    -1.10079588     1.83945935
C    -1.52177628     2.78061139    -0.10156770
C    -1.36266995     3.32924435    -1.37654398
C    -2.61573523     3.07948986     0.71561198
C    -2.42127478     4.09067168    -1.85534847
H    -0.48838727     3.27392891    -2.00498333
C    -3.70718893     3.68502524     0.11468100
C    -3.61173512     4.22679454    -1.15868348
H    -2.32401199     4.57789301    -2.81685277
H    -4.65233219     3.73103430     0.63944613
Cl     6.97209561    -0.76670606    -0.37625099
Cl    -4.94855040     5.11350472    -1.84373082
N     1.47878904     0.96296560     0.89154205
H     1.16214643     0.91842701     1.84731843
C     0.74280116     1.70917882    -0.01526657
O     1.08901747     1.99920614    -1.13564718
N    -0.46777636     2.09240144     0.52869657
H    -0.68535769     1.81725263     1.47357726
H    -2.65311037     2.62270054     1.69916201
H     3.18257888     2.11293558    -0.94863480
Cl     5.47257285     1.43224077    -2.25836210
