%nproc=8
%mem=4000MB
#opt=(noeigen,calcfc,ts,recalc=5,maxcyc=200) freq B3LYP/SVP em=GD3BJ

ts-4481.gjf

0 2
O  3.28938274988716  -3.77947092895253  -3.88213086174758
Cl  -0.00096697405893  -1.36641134871482  -4.13096541803568
H  3.36532471779284  -4.10785965935077  -4.76912426693202
C  -3.94752205085430  0.87506620085286  -2.01667891084195
C  -2.68566046292211  1.62618722882167  -1.72010520206206
C  -1.48738150525489  0.97731873718050  -1.51313996145610
C  -1.40868580873206  -0.36682220652889  -1.82901715582959
C  -2.60616082459844  -1.08444414496867  -2.09697779603698
C  -3.83590917534909  -0.50124538355296  -2.31480786372191
H  -2.77333550911148  2.69233443438321  -1.60580576851161
H  -0.71455496207700  1.64072243400733  -1.19605360847345
C  1.71662737255309  -3.19765691310708  -1.57231096403349
C  3.03949591395119  -4.74904716008210  -2.98915379487295
C  1.03597535711438  -3.18608842587847  -0.33927127351093
C  2.74818126391319  -4.22606102165843  -1.59178225909125
C  1.76224328246138  -3.95386344797905  0.50177369809876
C  2.62046675973024  -4.79508698497109  -0.27024684233931
H  1.67892442947016  -3.99963285657226  1.56283636805399
Cl  -5.34563394128776  1.73580847018736  -1.92683621998332
Cl  3.31071648071455  -6.25474763789187  0.18592210426221
N  -0.12347421989756  -0.99106342220287  -1.64803185572346
C  0.50160881305268  -1.53649510375825  -2.62806198363110
O  2.69690953958601  -5.84995398030040  -3.24376436970034
N  1.55419618153780  -2.29680490410051  -2.54967925573013
H  2.00688361433695  -2.54440815309545  -3.41817509281117
H  0.16013276382092  -2.56097822030722  -0.27060563719342
H  -2.46133854748538  -2.15740329401549  -2.08628244198248
Cl  -5.38013995022481  -1.76228260761631  -2.38694277016577

