%nproc=8
%mem=4000MB
#opt=(noeigen,calcfc,ts,recalc=5,maxcyc=200) freq B3LYP/SVP em=GD3BJ

ts-4491.gjf

0 2
O  3.43050103998810  -3.34425236135359  -3.68158349390827
Cl  -0.64739075255851  -1.84893953387359  -4.39814792654745
H  3.99581385623513  -3.57640145676780  -4.39411273406353
C  -4.05680044884992  1.08695906600252  -1.83919263897348
C  -2.84408132501649  1.68282699371561  -1.53509416208818
C  -1.76049920875759  0.89939413582953  -1.27028019697729
C  -1.69719976134934  -0.41533870501661  -1.68296823584907
C  -2.85306302174273  -1.05025647028012  -1.91587807028518
C  -3.94167919644266  -0.26613419794652  -2.08086310624642
H  -2.83835453197258  2.70270468590365  -1.28541169499067
H  -0.96563919171156  1.55095711004924  -1.02831128585940
C  2.16816893843844  -2.79713413436243  -1.28770863426038
C  3.01489581680864  -4.50462969405329  -3.05985161910774
C  2.06216436594534  -2.74055258468280  0.16184496528337
C  2.45735740484006  -4.17230927291264  -1.69328452014919
C  2.02957586259980  -4.04667509712151  0.55895847812982
C  2.29323070961799  -4.94849840948390  -0.47102989414320
H  1.89568566778685  -4.50861772604152  1.53218575962628
Cl  -5.36532617611446  2.19960780699376  -2.10123574039955
Cl  2.74080048131281  -6.70293020345488  -0.21406744421883
N  -0.47097822689823  -1.15331131760598  -1.52012812871100
C  0.22683022026989  -1.73685366433174  -2.34816469402883
O  3.25483031192936  -5.62265853377026  -3.59082065800753
N  1.56026606904108  -1.87019493060774  -2.11861335677477
H  2.05924925982978  -1.98096962547693  -3.01772406888971
H  2.02410727906390  -1.84035381698930  0.75114835607394
H  -2.84903783971712  -2.09038200567409  -2.19021945797552
Cl  -5.27431449043550  -1.14716895236962  -2.56732493978565

