%nproc=8
%mem=4000MB
#opt=(noeigen,calcfc,ts,recalc=5,maxcyc=200) freq B3LYP/SVP em=GD3BJ

ts-4511.gjf

0 2
O  3.62020451774870  -3.00921069645878  -3.75175862024874
Cl  -1.12961636183510  -2.98555905346478  -3.77503648382421
H  3.91762112340195  -3.24790294387930  -4.67563471577480
C  -3.99082166864647  1.69183003283015  -1.75874241025327
C  -2.89615176708271  2.02007970417558  -0.92513887122271
C  -1.80837287297349  1.14173050868112  -0.73677951615607
C  -1.81303610715235  -0.17067091073137  -1.39060418961356
C  -3.01238075230925  -0.54126698048832  -2.04252803909355
C  -4.05558648525878  0.33614785031240  -2.34442468674054
H  -2.80033694152905  2.94689523795835  -0.38620875826049
H  -0.98329843511871  1.38040253964236  -0.08205992416501
C  2.15367541678007  -2.79887641328216  -1.02892889842887
C  3.47518292998667  -4.06130250352618  -2.93731125237986
C  1.97988421239751  -2.97220091055686  0.36278808385258
C  2.78794872562385  -3.87856004789445  -1.67127351143142
C  2.36917570570519  -4.25281765106308  0.49182301605205
C  2.81992266657907  -4.87072851367238  -0.69734639148087
H  2.53428546400263  -4.70387319740861  1.43998754522796
Cl  -5.28362544465603  2.66173365025151  -2.22086952772844
Cl  2.37643320046837  -6.46166159682809  -1.12367694702168
N  -0.69818654521010  -0.80778237075610  -1.20735349169543
C  0.18939511073711  -1.59263246814334  -1.35178873328349
O  4.14601146341610  -5.12014391641933  -3.09299864601543
N  1.41217955790226  -1.79901487869783  -1.61497915336248
H  1.66445055463960  -1.68564574375519  -2.64863566822575
H  1.63855768024345  -2.06390720593385  0.80826157125367
H  -3.18476949323509  -1.57355628004125  -2.32197016120282
Cl  -5.65944839889975  -0.22697969459798  -2.83681598446563

