%nproc=8
%mem=4000MB
#opt=(noeigen,calcfc,ts,recalc=5,maxcyc=200) freq B3LYP/SVP em=GD3BJ

ts-4521.gjf

0 2
O  3.33916196299692  -2.85471178485393  -3.68914851551837
Cl  -1.18509124640949  -3.47654522799670  -3.46985772555311
H  3.77804625091243  -3.19234818369738  -4.50791648518600
C  -4.11790312452291  1.87329774008628  -1.63708184916757
C  -2.98254879155380  2.27689322049265  -1.10293049985774
C  -1.98528077125572  1.43416049696112  -0.66714107693568
C  -2.04150786537130  0.06618536169745  -1.05697708327686
C  -3.05401176932495  -0.28437792755814  -1.89751281286391
C  -4.08514000378322  0.57021137561801  -2.15602992476607
H  -2.91770994684186  3.27510798831135  -0.75317685060303
H  -1.12396448633929  1.84941736339249  -0.21398808875352
C  1.98237069973191  -2.80407027681926  -0.84413892578660
C  3.48435259897462  -3.89738987514620  -2.88937228725016
C  1.78603159214964  -3.17627167535366  0.50266976940406
C  2.58990798758406  -3.87814353830987  -1.67830010652212
C  1.77288020963264  -4.46795771581550  0.32562206489200
C  2.40786441405366  -4.93342766558926  -0.84356666338829
H  1.49503623922817  -5.08368662094868  1.15867479654533
Cl  -5.23463664013023  3.18787662809746  -2.06627342662804
Cl  2.84372270190859  -6.54194534628185  -1.26895207572383
N  -0.97037798321785  -0.91065652473128  -1.01038374125998
C  0.26364708756140  -0.94566309133783  -0.96450138524749
O  4.36198159033211  -4.66726808133684  -3.01910412268711
N  1.39864978456555  -1.56634200717086  -1.18086729916035
H  1.97798448607152  -1.35053722259907  -1.96690228515729
H  1.46078271972931  -2.58726267818587  1.32965760820599
H  -3.06855044934184  -1.29332257338103  -2.28402789770707
Cl  -5.34429930153122  -0.10660190237976  -3.01030102849011

