%nproc=8
%mem=4000MB
#opt=(noeigen,calcfc,ts,recalc=5,maxcyc=200) freq B3LYP/SVP em=GD3BJ

ts-4584.gjf

0 1
O  0.43868780245821  9.05516881596830  3.99245802737660
H  0.20761566499005  8.11899732155788  4.02990711805489
H  -0.12107917074048  9.31629704431093  4.77250703399457
O  -0.20408395508157  2.69006663679856  2.63660041912542
H  -0.00910807845801  3.14821045778514  1.77518201328170
C  2.47882236129578  0.41373077710841  3.07749683734237
C  1.26397431553108  0.85962668524984  3.42622932605330
C  0.20011662916071  1.33514783727774  2.35833981715949
C  0.93498746941410  1.44342487287961  1.10824106850703
C  2.31453907545154  1.34824683735462  0.89330778158018
C  3.14242257950619  0.71209561360789  1.83660425865665
H  0.87569499526510  0.50937411967606  4.37616215226848
H  -0.65271452976425  0.66458990219555  2.43377606077680
Cl  3.36849561215381  -0.80991927234757  4.09555373730175
N  0.25661837478819  2.00553976515189  0.16180149590433
H  0.48126457414262  2.60940929465829  -0.63285317089199
H  2.70906117736456  1.89290774025181  0.06158871632794
Cl  4.94512136472777  0.78573158667049  1.86639199996454

