%nproc=8
%mem=4000MB
#opt=(noeigen,calcfc,ts,recalc=5,maxcyc=200) freq B3LYP/SVP em=GD3BJ

ts-4594.gjf

0 1
O  0.78121872444959  7.30079690191999  2.74298410808809
H  -0.09247886484286  7.53869999145044  3.08087047767052
H  1.13773621117547  7.95345967430877  2.12800669617348
O  -0.40594682227254  2.21236536792633  2.85647641101432
H  -1.14191242182938  2.64686019229708  2.27984215119464
C  2.28998799532867  0.34434310081031  3.19229815807663
C  1.00047068135268  0.59254680102818  3.35800503229039
C  0.25329850023474  1.20321363846516  2.18020257395541
C  0.99809858911210  1.59986412517088  0.95735354358655
C  2.38972050938990  1.08262336301556  0.83049674891652
C  3.05241014151343  0.73132974713518  2.01553904802519
H  0.64796482243803  0.49729447520250  4.40028376671736
H  -0.44651057244495  0.36702126196589  1.97567512343836
Cl  3.12180881439623  -0.94071928922794  4.01823067070662
N  0.32169664575224  2.05465044824892  -0.07843764146559
H  1.03846351269801  2.10989390352135  -0.83102131422023
H  3.01545842793292  1.30914702869589  -0.03265794060689
Cl  4.75374190209355  0.91308359711728  2.10210410130018

