%nproc=8
%mem=4000MB
#opt=(noeigen,calcfc,ts,recalc=5,maxcyc=200) freq B3LYP/SVP em=GD3BJ

ts-4604.gjf

0 1
O  1.05509476581595  5.23243976737170  1.31255633527029
H  1.18929492833481  4.94727017198158  0.37017892583592
H  0.45283124706189  5.96486582208617  1.19162415853125
O  -0.67950548003759  2.08165529502628  2.60487432091877
H  -1.38717638517624  2.09097055574592  1.89031723700314
C  2.20246773591395  -0.26453987526827  2.94654622631098
C  0.86025664065228  0.07694215980930  3.10483097332583
C  0.06660832565729  0.98354197329623  2.23769091729292
C  0.93968826323062  1.71924578618576  0.97848474275644
C  2.31269046995258  1.49633069867194  1.12629634879683
C  2.96319969963211  0.74397779686110  2.06505730001993
H  0.39128447836739  -0.17596305956797  4.05574821613967
H  -0.51755041436792  0.39106123551601  1.58118924076831
Cl  3.03771084486594  -1.00328159101466  4.21215255975573
N  0.18119246597405  1.99837666010667  0.00942549813950
H  0.50230829474039  2.19446784828624  -0.94340762791826
H  2.88429973234731  2.05707802392609  0.35655506252008
Cl  4.65036692326014  0.83196399855049  2.37166549084355

