%nproc=8
%mem=4000MB
#opt=(noeigen,calcfc,ts,recalc=5,maxcyc=200) freq B3LYP/SVP em=GD3BJ

ts-4644.gjf

0 1
O  3.11549389265079  1.28710507147470  -4.79054204401444
H  2.37595640550573  1.89237804957358  -4.92816588371172
H  -1.84033598183468  -0.99150639678604  0.59112964739084
O  -1.30948255663014  -0.61375696779423  2.43545058547282
H  -1.60976880551903  -0.25348733247406  3.32623846929600
C  1.57989792562207  -1.54802671449074  3.78450167862412
C  0.50822602715297  -2.28940264984713  3.69914595725065
C  -0.53095857241575  -1.93285848592186  2.51743475085534
C  0.19640388246144  -1.66592512188251  1.22978160819673
C  1.26233640940921  -0.73169794370251  1.36573328724387
C  1.94514595563739  -0.67282895355158  2.58457683520596
H  0.34433806556520  -3.12108942556680  4.37002838987863
H  -1.27415077746860  -2.80084042798961  2.49913200045679
Cl  2.57386683582881  -1.43173742396794  5.12977648322312
N  -0.73090873427684  -1.53710467947437  0.11532676851251
H  -0.34823953644305  -0.81969785819051  -0.48040488748132
H  1.16200905047858  0.05224287915302  0.62171347842336
Cl  2.43002624856979  0.99984670936024  3.03868018346774

