%nproc=8
%mem=4000MB
#opt=(noeigen,calcfc,ts,recalc=5,maxcyc=200) freq B3LYP/SVP em=GD3BJ

ts-4253.gjf

0 2
O  4.16328314510822  -4.32218363164885  -3.91424614035809
Cl  -1.64820515110449  -4.06879959330070  -3.50472172854340
H  4.83061797485337  -4.12112439705178  -3.26157532712809
C  -5.60973389183303  -1.88538721596444  -1.03960079389625
C  -4.67306020559851  -0.92412150256821  -0.53187660128269
C  -3.34356626579251  -1.32262548988579  -0.50087882716536
C  -2.81174087158517  -2.37827515926629  -1.21289342860225
C  -3.73226522270460  -3.24607114199296  -1.86974725578567
C  -5.08599251503290  -3.00093962691819  -1.71428365081569
H  -5.03395425930049  0.09140913042987  -0.41764596491381
H  -2.69619713960416  -0.55772963969803  -0.12286900281925
C  1.49543095725714  -3.86206174985795  -1.36607756510299
C  3.00522860440438  -3.87018065810783  -3.29160628796174
C  1.66011761318548  -3.79502756764756  0.09423607357846
C  2.72731694294070  -4.26658639162443  -1.95011009048586
C  3.00164602301823  -4.20812236019136  0.34838252706547
C  3.59774930946147  -4.55350502922783  -0.88147202954160
H  3.63748000295759  -4.17218355608627  1.21894289300173
Cl  -7.39100609962597  -1.54128278429895  -0.93802232398524
Cl  4.92816436938672  -5.58028166002008  -0.80426326347736
N  -1.45600313320850  -2.62012310164531  -1.16381832869253
C  -0.88690551036781  -3.37271873856590  -2.07548088761004
O  2.11733945926068  -3.38674356329978  -4.12638649874822
N  0.37728094379282  -3.65495470278185  -2.14935872655738
H  1.26017310265834  -3.07517366846310  -3.54697158178678
H  0.91724424744127  -3.29127217882782  0.69840542155232
H  -3.32292336810367  -4.18127934743846  -2.20826153980057
Cl  -6.16079057964755  -4.15912681483338  -2.35408317298651

