70
 energy: -143.126483824620 gnorm: 0.098503718173 xtb: 6.6.1 (8d0f1dd)
O     0.71829924    -3.01997354    -0.99740159
H     0.86910999    -2.45176604    -1.75485415
H     0.95498294    -3.90665293    -1.27510499
O    -2.83589531     0.40056912    -3.00522206
H    -2.55509099     0.49870316    -2.09370824
H    -2.13978785     0.66823116    -3.60782434
O    -1.13676069     0.70867410     3.37483510
H    -2.05533862     0.56230252     3.60749056
H    -0.58678170     0.01847934     3.74965861
O    -4.10692358     0.06108744     3.14881489
H    -4.96459175    -0.23877425     3.45512723
H    -3.87226946    -0.16097731     2.24606179
O     1.56484754    -2.15649494    -3.65781021
H     1.88189466    -2.99972830    -3.98610550
H     1.24046224    -1.55230185    -4.32793184
O    -1.92018206    -2.98249445    -2.10983041
H    -2.63994426    -3.07492611    -1.48314329
H    -2.18324208    -2.69466829    -2.98578416
O    -0.96429863    -0.77442389    -1.00088644
H    -0.64992316    -0.09151853    -1.59598792
H    -1.18975689    -1.56316984    -1.49726028
O    -4.31578378    -2.33516659    -0.51879901
H    -4.72813275    -1.50878109    -0.77646839
H    -4.53184422    -2.42656873     0.41087838
O     0.43084523     0.68626261    -2.97699242
H     0.38197297     1.28788249    -3.72197807
H     0.99496015     1.24145889    -2.43581846
O    -2.58209660    -0.40124986     1.06279261
H    -2.20852688    -0.25845450     0.19136075
H    -1.83928459    -0.75898957     1.55227286
O    -5.50875909     0.20124240    -2.06272322
Cl    -6.03968575     1.64864434    -2.78681348
H    -4.71249720    -0.00898593    -2.56507516
O     2.61309890     0.80369620     4.04782702
Cl     3.89525165     1.90617662     3.84341107
H     1.83011663     1.31073618     4.29366503
O    -0.08651328    -1.87131531     1.57952796
Cl     0.69956732    -2.57702905     2.91564518
H     0.19512333    -2.34475995     0.78762070
O    -0.16989501     3.32007490     3.46024454
Cl    -0.00539596     3.15540517     5.14754558
H    -0.87892332     2.72535118     3.18790170
C     5.71500819    -0.45215049     0.31697903
C     4.89962559    -1.01613137     1.29052892
C     3.60278793    -0.56634833     1.45051738
C     3.03696424     0.34650699     0.55417498
C     3.78549795     0.79012935    -0.53568378
C     5.12080742     0.40918861    -0.60075611
H     5.30661237    -1.66252317     2.05693243
H     3.00518347    -0.79720620     2.32548544
C    -1.31969353     2.66029451     0.19714628
C    -1.17956821     3.66064905    -0.76801346
C    -2.61197135     2.55634734     0.71970760
C    -2.26861342     4.32949668    -1.31234151
H    -0.24379957     3.95492684    -1.21534302
C    -3.71121438     3.25908266     0.25399280
C    -3.54685305     4.12524211    -0.81691138
H    -2.11964617     5.04980021    -2.10626017
H    -4.66700578     3.14413097     0.74799690
Cl     7.37861642    -0.90159603     0.12825973
Cl    -4.84144112     5.22463352    -1.21440384
N     1.71939277     0.79336859     0.73817300
H     1.18502241     0.36444113     1.47724292
C     1.06165649     1.87851776     0.18081437
O     1.51790942     2.57029949    -0.69810870
N    -0.21752233     1.94214807     0.69841108
H    -0.49068895     1.17252538     1.28909631
H    -2.70030057     1.91789091     1.59263111
H     3.38890552     1.41587232    -1.31870691
Cl     6.13700742     1.15954233    -1.78804554
