%nproc=8
%mem=4000MB
#opt=(noeigen,calcfc,ts,recalc=5,maxcyc=200) freq B3LYP/SVP em=GD3BJ

ts-617.gjf

0 1
O  1.39691392414290  0.32387385557150  -3.08771942731630
H  1.91120968217948  -0.20610863517058  -3.69212483509799
C  -5.77481402548704  -0.03869767456651  0.83700773291694
C  -5.38243327293356  -1.32799948904194  0.50560338255886
C  -4.02113828608158  -1.63849716636603  0.71560105963585
C  -3.20380433401311  -0.96628869618602  1.75642642704111
C  -3.60961783708511  0.37540337271351  1.74876869197532
C  -4.78149873539561  0.85265104749166  1.28981461049499
H  -6.04709831334804  -1.90721103553353  -0.14359565430400
H  -3.60543166504388  -2.58822280175268  0.35395686251770
C  1.50703288410018  -0.89227384518579  3.00506224412463
C  2.67078445148401  -0.08183324457737  2.71280543424673
C  1.61011710469343  -1.69362208402054  4.24210137059580
C  3.93201266874441  -0.27309057957075  3.25819202676476
H  2.62494788726133  0.68647905993103  1.95816391099094
C  2.84576689882163  -1.74351152879443  4.91705773380045
C  4.03863517551121  -1.11677727079594  4.39884267377135
H  4.79790203782919  0.13040868718194  2.75762258832597
H  2.89407171506006  -2.33196335301925  5.83251833917118
Cl  -7.50312245850961  0.09042052606973  1.13990034199523
Cl  5.50879125031046  -1.13236934751366  5.22080178337010
N  -1.97604551109559  -1.25637258197274  2.36165308738190
H  -1.49193040711612  -2.16635198804200  2.35823617217856
C  -0.79977284166374  -0.31399834565685  2.20262088808334
O  -0.79550406080326  0.89127146679748  2.17032125868276
N  0.28667697303943  -1.14096030166108  2.20061455146386
H  0.72786052322879  -2.17861899136973  4.63395971547723
H  -3.05644768542210  1.12164942246200  2.34731197567372
Cl  -5.16919682622752  2.36760264174855  1.80856389666893

