%nproc=8
%mem=4000MB
#opt=(noeigen,calcfc,ts,recalc=5,maxcyc=200) freq B3LYP/SVP em=GD3BJ

ts-3816.gjf

0 2
O  -1.37903391707653  -2.91209277728067  1.21748065568778
H  -0.85668405973622  -5.80703851763786  1.68434908379214
C  -0.11432682130529  0.90642821290613  -2.60487903864576
C  -0.18348684064404  -0.39050868531927  -1.97514004196883
C  -0.29895700066464  -0.46806753172262  -0.60087554476004
C  -0.08725607084619  0.72434943509200  0.22785569653822
C  0.14400552520489  1.95558093104085  -0.40664332821965
C  0.00244938258288  2.03638023593134  -1.80825789127391
H  -0.13773308735923  -1.34700800386967  -2.43277900150378
H  -0.37820248020351  -1.46362972891703  -0.16625348165005
C  1.87362457727208  -2.02783933291520  2.66709740579814
C  1.32797457777747  -2.87780374406709  3.54791742533763
C  0.09051232976852  -0.56947425285511  2.18889215009555
C  0.22842693547523  -3.51453852518715  3.05916025884779
H  1.84154155362731  -3.28219467694180  4.46944857569610
C  0.82308452666182  -1.79929613820203  1.62375775943733
C  -0.35591857202446  -2.83323010068773  1.91235121371789
H  -0.23440443979285  -4.11271423500497  3.84335761381556
H  1.33251563308682  -1.79298846536062  0.63690887299201
Cl  0.05484207687354  1.12787109106243  -4.36732650197736
Cl  0.55241754162273  -5.57138055322955  1.68624844625085
N  -0.21667801191317  0.58147547430944  1.62560649891439
C  3.49518910785440  -0.51862327536181  3.49179817906952
O  4.12351567134546  0.28427709638766  4.06224483069252
N  2.80749309697407  -1.02425657172939  2.63677653313411
H  0.06389779484488  -0.51269722767332  3.26774104329534
H  0.46924212943201  2.83189242592866  0.10853126568719
Cl  0.75166302488597  3.56938784554558  -2.12225403399565

