%nproc=8
%mem=4000MB
#opt=(noeigen,calcfc,ts,recalc=5,maxcyc=200) freq B3LYP/SVP em=GD3BJ

ts-3836.gjf

0 2
O  -0.16915933601456  -3.91473506055406  2.26481605057431
H  -0.71086277711338  -4.19715848425572  3.08153833037188
C  0.59456953187084  0.52761152615839  -2.94725848996679
C  1.16404013557517  -0.70767698164743  -2.34007959076089
C  1.19839237741421  -0.95400574131628  -0.84066143981757
C  1.22682690698733  0.07122122169008  -0.01855511498821
C  1.02790447334750  1.43087020979266  -0.65855049660644
C  0.83741030845620  1.59206280418280  -1.97298552179510
H  0.90569380131730  -1.56191543751210  -2.98812009367653
H  1.00778508008894  -1.99432357918185  -0.62672190394468
C  2.78942313881232  -1.97451326566327  3.41377272357628
C  2.46659073192706  -2.74631980089334  4.50318532876864
C  1.14655749955249  -0.98203026255355  2.11310479115169
C  1.39107935325689  -3.54319893149340  4.11095918389401
H  2.71141645462268  -2.62964891080273  5.56969370668137
C  1.88194575774612  -2.26446539888700  2.24194728511244
C  0.94004271135251  -3.41547220174859  2.81484816648173
H  0.79728977665282  -4.17625136449989  4.78198850005939
H  2.37878622904782  -2.36709669502610  1.27928832480306
Cl  -0.59459298325776  0.87693060020401  -4.27593095765530
Cl  0.28833777035625  -7.03492486800222  1.84596813729542
N  1.05219365568010  -0.04388851104233  1.25526653189709
C  3.46052283031214  0.12301584946931  3.97511773228189
O  3.49167750234822  1.20676857198393  4.42274221806800
N  3.71626590663884  -0.95475131192350  3.45269693145783
H  0.56743463106999  -0.63756298661555  2.96921428501471
H  1.01181101575027  2.21853105546110  0.10357053319436
Cl  -0.00054676659461  3.13157806233952  -2.48266686932143

