%nproc=8
%mem=4000MB
#opt=(noeigen,calcfc,ts,recalc=5,maxcyc=200) freq B3LYP/SVP em=GD3BJ

ts-4359.gjf

0 2
O  -6.32792395033042  2.81954465459967  5.57392161322891
Cl  -7.01218626476528  1.99626253319496  4.45149260991651
Cl  -5.51999342410593  -0.91947870395443  3.36368857624544
H  -6.19035432915595  -1.58993110304507  4.20988125494753

