%nproc=8
%mem=4000MB
#opt=(noeigen,calcfc,ts,recalc=5,maxcyc=200) freq B3LYP/SVP em=GD3BJ

ts-4409.gjf

0 2
O  -6.48624276848725  2.11244377542899  5.12693213853962
Cl  -5.58011019302076  3.00773364436623  6.22255073459262
Cl  -4.21756330054607  0.53868815232832  2.76882436799910
H  -7.32635511550538  2.34222046314517  5.33644716998937

