%nproc=8
%mem=4000MB
#opt=(noeigen,calcfc,ts,recalc=5,maxcyc=200) freq B3LYP/SVP em=GD3BJ

ts-286.gjf

0 2
O  1.07079812745127  -3.34716088334829  -2.81493844471054
H  1.49651747680416  -3.90537783673544  -3.48306707189440
C  -3.78355500852573  -1.42940131373441  -4.05127415006693
C  -2.73654202001803  -1.00249348971504  -4.93571161864741
C  -1.41416843493202  -0.78330930040781  -4.49498378536455
C  -0.99538416565646  -0.89094388766630  -3.17493156085773
C  -2.09088415483982  -1.14027190091672  -2.32259361941566
C  -3.28801383089546  -1.65651074703527  -2.68627042492080
H  -2.75073287594584  -0.71632108896538  -5.92554367145561
H  -0.65679450337499  -0.54880967999191  -5.21860998327598
C  3.82371713076321  -0.53852051447064  -2.80180384101902
C  4.54594511269106  -0.84205525337802  -1.59519527562952
C  4.20292156326855  0.45372589195516  -3.71929319496482
C  5.59588911487288  0.01781238465331  -1.24958531675159
H  4.54408212874309  -1.83732240245214  -1.15374767280385
C  5.24431713783288  1.26613672303994  -3.45395204695267
C  5.71484409934069  1.16458374493963  -2.11194566530624
H  6.16892750168031  0.00918139688724  -0.40264664959624
H  5.70217033707315  1.84659065507094  -4.23666519017229
Cl  -5.44507858346317  -1.52299317280608  -4.76393306518129
Cl  6.37127309354829  2.71519892462896  -1.72805609308924
N  0.39370262583211  -0.81636308098538  -2.78914379614808
H  0.54270279268741  -1.41614348850694  -1.99465728399392
C  1.50483798238875  -0.46753910116824  -3.58484161082551
O  1.43451793569820  0.37254223248928  -4.45403130913757
N  2.60794122788549  -1.13928499402114  -3.08824659740765
H  2.33540482374936  -1.95966661097364  -2.50665352777333
H  3.63698783155530  0.54468811621909  -4.62447028174079
H  -1.97497113851508  -0.98325602253409  -1.23125047487039
Cl  -4.48922732693180  -2.02595291678965  -1.52013629512553

