%nproc=8
%mem=4000MB
#opt=(noeigen,calcfc,ts,recalc=5,maxcyc=200) freq B3LYP/SVP em=GD3BJ

ts-306.gjf

0 2
O  2.25081478060542  -3.15647203159942  -1.29473922543221
H  2.62004703977698  -4.00251386610079  -1.55878709810135
C  -3.65945703540023  -1.45468282450980  -3.72254224700347
C  -2.82437886677789  -0.64585285654998  -4.56183807407714
C  -1.43059977949427  -0.66666150086588  -4.33367033163571
C  -0.87937215312462  -1.66272955366937  -3.49194698828813
C  -1.71218809277161  -2.02559796515463  -2.47079562797495
C  -3.04660206217585  -1.99505757938746  -2.62627444299981
H  -3.38758005531710  0.04435929048783  -5.18854310693528
H  -0.79466424672879  0.14286002103154  -4.71272625083305
C  3.81308180133058  -0.50386290003868  -2.64952703964113
C  3.92331891216137  -0.21864948676595  -1.30733255039430
C  4.61431966279940  0.13960000627778  -3.59949496367149
C  4.90910911484642  0.70402967223933  -0.97557443628774
H  3.03552353624161  -0.35823961093101  -0.76423308317732
C  5.57737277363270  1.01452302889674  -3.24743603719560
C  5.77589829207416  1.16505751387017  -1.90281078600414
H  4.85056430705223  1.27664308100778  0.01209858388387
H  6.05909713502024  1.65827251495358  -3.88232869585991
Cl  -5.37024801919477  -1.66003788342692  -4.02849776822916
Cl  7.18751214424188  2.21668387423915  -1.44588211742382
N  0.49509375375254  -1.79888472189475  -3.28511607838462
H  0.91899484625082  -2.61888038699781  -2.87154639408073
C  1.51903247797196  -0.84932469315933  -3.41127097859013
O  1.30521896029738  0.31849303863267  -3.73228335497131
N  2.75532003367083  -1.41076173185760  -2.99120367244328
H  2.50765684758131  -2.40289108304485  -2.19235612060149
H  4.41285689981299  -0.07716447889516  -4.62563964677785
H  -1.30931501446042  -2.45796085366530  -1.59762609951713
Cl  -4.12924382056885  -2.22165563228406  -1.43595875440678

