%nproc=8
%mem=4000MB
#opt=(noeigen,calcfc,ts,recalc=5,maxcyc=200) freq B3LYP/SVP em=GD3BJ

ts-326.gjf

0 2
O  2.73510159068330  -2.87516172779367  -0.93910798066952
H  3.20053384872707  -3.16338947718288  -1.71557334269889
C  -3.43188063000184  -1.41408302036268  -3.23752544114177
C  -2.49785772564067  -0.95168404847861  -4.12469981764558
C  -1.16295244098064  -1.24035504926235  -4.01385663008716
C  -0.77145905085656  -2.00075063965694  -2.87602769532063
C  -1.71041301169549  -2.38746701002377  -1.95210372026905
C  -3.05773410403772  -2.35554093579061  -2.24081928676231
H  -2.89276804056204  -0.43880413974464  -5.05900245003083
H  -0.56631796101239  -0.97603309154241  -4.85054999334906
C  3.42211818778834  -0.01812009673205  -2.33527353629909
C  3.72050475029763  0.64811389229621  -1.15493143356351
C  4.36019800296028  0.00377072698529  -3.43948351592931
C  4.90892833889169  1.27003229248991  -1.06952675645961
H  3.06636552680173  0.58428950438204  -0.29548846635242
C  5.60728419498628  0.61332276541104  -3.26191822772915
C  5.87199096584955  1.25860994818316  -2.06185910088339
H  5.09637783925273  1.69619218710369  -0.03666112286840
H  6.39276631595340  0.59089755421154  -4.07391330241753
Cl  -5.15322609730174  -1.18826071331797  -3.69011178043347
Cl  7.38152196507763  1.61905352146748  -1.19800905479210
N  0.50534790974567  -2.10017226289455  -2.71816967547043
H  0.77146008458070  -2.93852406929963  -2.20949358474917
C  1.23070658549692  -0.80262698774895  -2.80522058029653
O  0.63974304205762  0.21745377596018  -2.98258164841757
N  2.41049849884786  -0.85801942740780  -2.35443668625741
H  2.56885329574290  -1.85174683670873  -0.92354762647448
H  4.10667679392808  -0.50127580385160  -4.39923881073213
H  -1.32072955836493  -2.84761959896608  -1.06623287733713
Cl  -3.96720444787507  -3.23925661523615  -0.94227497448826

