70
 energy: -143.144054512103 gnorm: 0.104484808836 xtb: 6.6.1 (8d0f1dd)
O    -3.27212245    -0.03967370     2.57408941
H    -3.49871148     0.64711624     1.94455385
H    -3.74159849    -0.86998417     2.47654220
O    -3.70027529    -0.45704601    -1.74928831
H    -3.23694045    -0.30553064    -2.57494122
H    -2.97425697    -0.35617411    -1.13117802
O    -0.65207317     0.14302256     2.56227082
H    -0.20053865    -0.70214884     2.59604217
H    -1.48680098    -0.19490030     2.89147590
O    -2.82710047    -2.71101193     2.11352599
H    -3.14587231    -2.94603747     1.24032127
H    -1.94770710    -3.06736535     2.25143178
O     0.24868711    -0.77110602    -2.24739279
H    -0.12712871    -0.26836518    -1.52258019
H     0.41357081    -0.14274362    -2.95259643
O     0.63569536    -3.45044591    -0.02335824
H     0.34338433    -2.84359297    -0.70572308
H     1.57782531    -3.58721157    -0.13748868
O    -1.34123644    -2.91512508    -2.70410789
H    -0.62280080    -3.54744282    -2.76209016
H    -0.96509612    -2.03318056    -2.70966842
O    -3.33098917    -3.25797103    -0.51724729
H    -3.85495533    -2.46208078    -0.62381350
H    -3.08473633    -3.46806629    -1.41977487
O    -1.48988638    -0.97557623     0.14177029
H    -1.94691640    -1.09390257     0.97631271
H    -1.65740554    -1.77853933    -0.35474296
O    -2.15062667     1.13422909    -4.16224970
H    -2.69733453     1.73082506    -3.64793259
H    -1.35530215     1.58230628    -4.45554823
O     0.53063022     1.47759096    -3.81572519
Cl     0.74579479     2.70536287    -4.97651912
H     0.51057847     1.77673230    -2.89882891
O    -0.42688987     3.85978884     4.66082387
Cl     0.89300906     4.36801253     3.71175055
H    -0.19090476     2.93251348     4.78353710
O     0.11706572    -2.59373059     2.55831188
Cl     0.87356534    -3.40351346     3.85180477
H     0.32940387    -3.01807297     1.71841178
O     0.39228708     1.33824051     5.18737722
Cl     1.86020485     0.48306478     5.06468766
H    -0.15309328     0.92385237     4.50809024
C     5.01705546    -0.40123220    -0.54428900
C     4.56331594    -0.57469544     0.75753805
C     3.46386995     0.10059827     1.25239758
C     2.67138271     0.84645570     0.37344839
C     3.08802002     0.96929077    -0.95177633
C     4.28227206     0.41569746    -1.39865241
H     5.15096129    -1.19975283     1.41694019
H     3.08538825     0.09035419     2.26858763
C    -1.66354232     3.21424792     0.81304685
C    -2.03319552     3.56327992    -0.48826429
C    -2.55931870     3.52602836     1.83980623
C    -3.27553068     4.10324997    -0.79600646
H    -1.31991671     3.40675687    -1.28142248
C    -3.83835639     3.94995230     1.51822668
C    -4.18492410     4.32035992     0.22719160
H    -3.56595086     4.36891419    -1.80417999
H    -4.44297072     4.25719186     2.36133784
Cl     6.35640379    -1.32605663    -1.14099203
Cl    -5.74213658     5.01219421    -0.14573536
N     1.49966837     1.46823760     0.83171456
H     1.42833872     1.41283752     1.83550622
C     0.48236331     2.14330483     0.17582664
O     0.38158011     2.27917227    -1.02025745
N    -0.37233347     2.72696725     1.09075018
H    -0.29595818     2.50081371     2.06996898
H    -2.24245243     3.33969247     2.86073657
H     2.49650449     1.47914910    -1.69482337
Cl     4.77758776     0.68272483    -3.03838049
