70
 energy: -143.116737707953 gnorm: 0.098584995500 xtb: 6.6.1 (8d0f1dd)
O    -1.17138236    -2.67890494     0.34240624
H    -1.66333000    -2.73844088    -0.47843541
H    -1.67014414    -3.18956290     0.98256546
O    -0.57672918     2.54158238    -2.71697790
H     0.03614303     2.29560441    -3.41211911
H    -0.23380353     2.32836409    -1.84733543
O    -1.65365362     0.54397622     3.48442640
H    -1.29979644     1.42775441     3.59870598
H    -2.58772044     0.59870065     3.69386082
O     2.46025902     4.23748415     3.67677158
H     2.79517039     4.49902147     2.81725336
H     2.46377193     5.02631602     4.22181323
O    -2.71413001    -0.77463970    -1.49119779
H    -1.99911077    -0.86339901    -2.12381810
H    -3.17677053    -0.04901735    -1.91401460
O    -0.93375178    -0.97108777    -4.32423880
H    -0.02168715    -0.81808783    -4.07112399
H    -1.26645730    -0.19301914    -4.77507767
O    -4.11001749    -2.74573583    -0.31646709
H    -3.63102887    -1.95219564    -0.56182665
H    -4.92048615    -2.63399278    -0.81645972
O    -1.33529600    -2.88855908    -2.30202961
H    -0.74861032    -2.94463875    -3.05833191
H    -2.10116597    -3.45510955    -2.41065866
O     2.32039648     1.66835654    -2.05049606
H     2.44610058     2.38186101    -1.42244475
H     2.15800739     0.91558695    -1.47926446
O     1.54939658    -0.06297936    -3.82281255
H     2.24770349    -0.71704525    -3.88529140
H     1.92594929     0.70297162    -3.38593105
O    -3.72751219     2.29550925    -2.73318341
Cl    -4.69440424     2.12629067    -4.12517732
H    -2.88486263     2.65017082    -3.04098740
O     2.27902102     3.45948782     0.40463072
Cl     0.98241588     4.42271758     0.94515658
H     2.20910340     2.73566496     1.03849119
O    -0.58992549    -1.79173031     3.29583648
Cl     0.89554632    -2.05736271     4.08575848
H    -0.86561305    -0.87659373     3.42663228
O    -0.37333333     3.63983545     3.45532543
Cl    -0.89334322     4.52701503     4.81314094
H     0.58582116     3.65106781     3.35293123
C     5.15661857    -1.94452240    -0.68338573
C     4.11156147    -2.83530557    -0.89571480
C     2.82501456    -2.37891353    -0.68079065
C     2.55867348    -1.14833816    -0.07116969
C     3.64111965    -0.31271307     0.20257592
C     4.94365038    -0.71038859    -0.07611663
H     4.33833383    -3.79798792    -1.33463615
H     1.94408985    -2.96765776    -0.91176132
C    -1.68561530     1.19864029     0.77449393
C    -1.39395028     2.55517521     0.61133164
C    -2.94240994     0.82127067     1.25607100
C    -2.35270608     3.50948727     0.92715635
H    -0.51161268     2.83083489     0.05648204
C    -3.86701558     1.77283992     1.65442089
C    -3.52304963     3.11294209     1.55494226
H    -2.18086019     4.55656421     0.71400381
H    -4.82848948     1.55664794     2.10120939
Cl     6.76051581    -2.53732197    -0.96853640
Cl    -4.83685646     4.21959851     1.85799832
N     1.22614182    -0.82780421     0.23074504
H     0.57060449    -1.59326382     0.22088637
C     0.60245367     0.30177501     0.73658908
O     1.11409295     1.23446360     1.30891035
N    -0.75048834     0.18781491     0.48200219
H    -1.15541731    -0.71940934     0.31222373
H    -3.13194748    -0.24418596     1.17668779
H     3.58567549     0.61436717     0.74976257
Cl     6.24440773     0.40524117     0.18608549
