%nproc=8
%mem=4000MB
#opt=(noeigen,calcfc,ts,recalc=5,maxcyc=200) freq B3LYP/SVP em=GD3BJ

ts-255.gjf

0 1
O  -4.12181126632502  5.61674091215006  5.01887578125167
Cl  -3.60720652929350  4.44636311006682  4.12280083627145
H  -1.99282063217824  1.72941916424119  1.22239577723913
O  -2.61967866186754  1.05536164942235  1.52813105997380
Cl  -2.55154339519045  -2.43996220125310  3.42437606155931
H  -3.29758850933906  0.99024481308951  2.13388427999074

