70
 energy: -143.140479936787 gnorm: 0.119210305506 xtb: 6.6.1 (8d0f1dd)
O    -1.41599991    -0.94057398     0.65486213
H    -0.90025996    -1.07610894    -0.14199457
H    -2.31329716    -0.84943279     0.32945530
O    -4.87810054    -1.91648564    -3.03188513
H    -5.68897280    -2.14458282    -3.48992078
H    -4.55884580    -2.70477545    -2.58915082
O     0.35808256    -0.26045401     2.77596460
H     0.43521854    -1.20638636     2.91234884
H    -0.43249839    -0.22729356     2.23446622
O    -3.60532984     0.07919503    -0.94243994
H    -4.20014312    -0.45567808    -1.47106731
H    -2.95102272     0.53559116    -1.47434522
O    -2.04706326    -1.31737991    -3.37623269
H    -2.32150697    -0.57167798    -3.91284099
H    -2.91263272    -1.72926015    -3.39819384
O     2.30012314    -1.97555963    -0.52206307
H     1.70752630    -1.51793349    -1.12101657
H     2.75961886    -1.22298768    -0.14544840
O    -1.88254701    -3.13618319    -1.19407030
H    -0.99161595    -3.48495199    -1.25683668
H    -2.06911320    -2.41571966    -1.79860645
O    -2.26130368    -1.21409168     3.40031357
H    -1.89065496    -1.99434639     3.81643891
H    -2.17511907    -1.23653890     2.44563831
O     0.43976310    -0.66450517    -1.95100863
H    -0.24874181    -0.79757382    -2.60491407
H     0.60669243     0.27918093    -1.98148755
O    -4.10142204    -4.64122174    -2.53192124
H    -3.27088795    -4.40835412    -2.11320398
H    -4.62150766    -5.14723777    -1.90518603
O    -1.67939098     1.59658717    -2.35878744
Cl    -2.05906952     2.90102376    -3.38613919
H    -0.79199032     1.72595378    -2.00330077
O     1.00022676     2.63864031     3.95128016
Cl     2.56136031     1.95744863     3.95342370
H     0.25912357     2.02215270     3.98728264
O     2.01114012    -2.86576672     2.06284219
Cl     1.26536894    -4.20573537     2.80410676
H     2.24016339    -2.96021928     1.13052615
O    -1.35021308     1.13962911     4.18027921
Cl    -2.19542199     2.32084550     5.06994802
H    -1.80907446     0.32920707     3.92878287
C     5.76816885     0.62990736    -0.56505696
C     5.27078049    -0.11772110     0.49531053
C     4.00731971     0.10056901     1.01077667
C     3.09314658     0.97018492     0.40666854
C     3.54311545     1.60635335    -0.74992708
C     4.83295108     1.41585531    -1.23204353
H     5.85994674    -0.90582823     0.94542747
H     3.78476933    -0.48145421     1.89831026
C    -1.50743953     2.63908471     0.91821359
C    -1.35751033     3.67764011    -0.00417539
C    -2.68723428     2.52943337     1.65977823
C    -2.35244813     4.61593117    -0.24785183
H    -0.44222152     3.71240156    -0.57286166
C    -3.69622989     3.45379331     1.44402629
C    -3.50722734     4.45358723     0.50127888
H    -2.16352702     5.40875990    -0.95993794
H    -4.62049893     3.28793391     1.98162138
Cl     7.37555141     0.37666892    -1.16288664
Cl    -4.83175516     5.47794514     0.01246720
N     1.81286855     1.15325268     0.95156256
H     1.62750401     0.72015023     1.84252666
C     0.67816497     1.70147216     0.37474587
O     0.70065632     1.93732420    -0.80978033
N    -0.43370176     1.77067227     1.19157952
H    -0.27481304     1.66054869     2.18075860
H    -2.90111848     1.79190256     2.42641108
H     2.84646002     2.16857647    -1.35037810
Cl     5.26599939     2.03924019    -2.79063582
