70
 energy: -143.136147491185 gnorm: 0.117113935598 xtb: 6.6.1 (8d0f1dd)
O     1.25562141    -3.94339235    -0.61430103
H     1.34151796    -4.89210686    -0.50521130
H     1.99717621    -3.51248420    -0.18563643
O    -1.93309723     0.65682901    -1.44686106
H    -2.00522229     1.61078551    -1.51092172
H    -2.61414907     0.47841646    -0.79595752
O    -0.51213563     1.03832726     3.63288398
H    -1.11317645     0.89235852     2.90023012
H     0.05324939     0.26868867     3.71852623
O    -2.09273076    -0.00989200     1.80106121
H    -2.93128384    -0.01957796     1.33622372
H    -1.63152290    -0.62929218     1.23275742
O     1.60777877    -2.52196251    -3.78611989
H     2.03113732    -1.75107473    -4.16800830
H     1.25970271    -2.14790442    -2.97478660
O    -1.29558808    -2.49426257    -2.25102176
H    -0.70624997    -3.18997382    -2.54767717
H    -0.83665277    -1.65567530    -2.32511109
O    -0.18630310    -1.41120598     0.09609675
H    -0.33591455    -0.92273785    -0.71529264
H    -0.20142814    -2.35122776    -0.09223508
O    -3.74067251    -2.13551443    -0.48607328
H    -3.02129688    -2.13980367    -1.11996482
H    -3.97311491    -3.06495652    -0.52407894
O     0.34390222    -0.10759350    -2.57538993
H     0.80681431     0.66174594    -2.23898569
H    -0.24349179     0.23451680    -3.25160487
O    -4.39198607     0.33152184     0.36310713
H    -4.65390705    -0.24872639    -0.35386408
H    -5.05594380     0.44994203     1.04463123
O    -4.51056316     0.57234640    -2.68524472
Cl    -4.41820421     1.26242546    -4.23972950
H    -3.65559972     0.50691818    -2.24326840
O     1.86593570     2.15836344     4.13537592
Cl     2.79415144     0.91210744     4.83281851
H     1.43745691     2.60623631     4.87456664
O     0.77009432    -1.04446931     2.90249317
Cl     1.44530200    -2.60819601     2.90664234
H     0.48610119    -0.90649244     1.99095798
O    -0.38690510     2.82139187     5.48216230
Cl    -1.47926738     4.08885288     5.16365315
H    -0.51637555     2.16601806     4.78623800
C     5.22135734    -0.55135964    -0.57570821
C     4.96495508    -0.66905962     0.78485309
C     3.98205701     0.13299543     1.33285673
C     3.22900519     0.99430596     0.52790457
C     3.58904391     1.22559953    -0.79941260
C     4.60461198     0.44042184    -1.33281577
H     5.47786247    -1.32165877     1.47902543
H     3.76936150     0.00224448     2.38815777
C    -1.09529547     3.15262976     0.57611447
C    -1.17521114     3.59369005    -0.74712277
C    -2.18635125     3.19452575     1.44886825
C    -2.45160591     3.92206032    -1.18605205
H    -0.39388089     3.42279323    -1.47009119
C    -3.40038711     3.68117786     0.99241562
C    -3.53263694     4.07250517    -0.33176543
H    -2.62917753     4.13834233    -2.23153071
H    -4.21257250     3.72689286     1.70589729
Cl     6.31908307    -1.69694680    -1.27416132
Cl    -5.08909752     4.74045748    -0.74876670
N     2.24695201     1.77032395     1.16265067
H     2.24404592     1.89904922     2.16223863
C     1.06355831     2.04416599     0.49526466
O     0.84908394     1.83900902    -0.67569463
N     0.11875440     2.78016070     1.18367645
H     0.02167810     2.58700686     2.16811326
H    -1.99936178     2.82695104     2.45253544
H     3.25551043     2.07124428    -1.37872713
Cl     4.89966762     0.70028109    -3.02123649
