%nproc=8
%mem=4000MB
#opt=(noeigen,calcfc,ts,recalc=5,maxcyc=200) freq B3LYP/SVP em=GD3BJ

ts-2718.gjf

0 1
O  1.74378147506018  -4.47731152076554  -1.80272391684362
C  2.07511111816747  -1.17931479723764  0.02471128479084
C  3.46091417478740  -1.29445516049065  0.26035473657462
C  4.12191389771529  -2.27998663252386  -0.42703648203687
C  3.41206776490555  -3.14889541500459  -1.27182646515743
C  1.99475535101325  -3.47834871148568  -0.80621144187115
C  1.28553510561558  -2.09373269343267  -0.68302090799159
H  3.84727746892034  -0.40621590078963  0.75256533864079
H  5.19785503334068  -2.46866000672275  -0.49988218977503
Cl  1.32483030436071  0.34048107215825  0.60314331089012
N  3.83618339563750  -3.76948844832163  -2.37600093287875
C  2.84614268918387  -4.50219834366106  -2.84290480330319
O  2.76905437269557  -5.46284420336717  -3.67891618976736
H  2.04472272662449  -4.21343527128564  0.09015843474028
Cl  -0.46134692097868  -2.07293505937555  -0.84025695253483

