70
 energy: -143.159899471224 gnorm: 0.115230555653 xtb: 6.6.1 (8d0f1dd)
O    -1.39743996    -3.30629536     3.00808291
H    -0.45422380    -3.30252633     2.83584152
H    -1.81701577    -2.98595211     2.20766114
O    -1.86949914     0.60525619    -1.65561059
H    -1.03476638     0.99084003    -1.38379242
H    -2.54707279     0.81638960    -1.01089771
O    -1.11430800    -0.40007822     4.28156390
H    -0.63089675    -0.76582449     3.53867640
H    -1.71031632    -1.12358609     4.48317938
O    -1.90116767    -0.50081787     1.15846272
H    -2.52951324     0.19672772     1.35327278
H    -2.36052425    -1.06114892     0.53048255
O     1.17333182    -0.91652908    -3.01313798
H     1.78075522    -0.20644342    -3.22797364
H     0.56390675    -0.84286142    -3.74969230
O    -1.79266413    -2.04351803    -1.05942090
H    -1.79185438    -1.10253818    -1.24352480
H    -0.89750892    -2.28708770    -0.81711856
O     1.39391041    -2.05347781    -0.56970801
H     1.29610226    -1.57806734    -1.39660334
H     2.19998699    -2.56518995    -0.65762743
O    -4.64823743    -2.07173107    -1.20526318
H    -3.72849385    -2.33975896    -1.16562760
H    -4.89212471    -2.07987693    -2.13251134
O    -0.59548367    -0.69934672    -4.99974895
H    -1.15894595    -1.46952887    -5.09285272
H    -1.15509827     0.07873747    -5.02721343
O    -4.58388308     0.54196102    -0.51446965
H    -4.63490218    -0.39439503    -0.71440149
H    -5.45259263     0.93649740    -0.60945946
O    -2.47701265     1.03534078    -4.14021445
Cl    -4.05185452     1.67577481    -4.24451959
H    -2.20702110     0.69233557    -3.27995961
O     2.36172567     2.35761268     3.94199859
Cl     3.45352770     1.59913401     5.00681928
H     1.47188232     2.20479408     4.28172258
O     0.62366583    -1.66622888     2.09684840
Cl     2.28022910    -1.63816750     2.49203762
H     0.54020734    -1.72976683     1.13789911
O    -0.82875833     2.07259281     4.43566378
Cl    -1.26333654     3.10616332     5.71786291
H    -0.98897878     1.16653959     4.72546552
C     5.45991865    -0.25653766    -0.36818849
C     5.33668986     0.06022001     0.97910582
C     4.23008950     0.72486484     1.47243321
C     3.24294454     1.15392424     0.57893230
C     3.38840388     0.85863430    -0.77625813
C     4.49607060     0.18068250    -1.27209835
H     6.12055049    -0.23012399     1.66619961
H     4.14310463     0.97533131     2.52395389
C    -1.37243990     3.01924454     0.67733555
C    -1.57633695     3.46410805    -0.63125147
C    -2.42021002     3.18587525     1.58742851
C    -2.84175468     3.85712662    -1.04829336
H    -0.85264562     3.40742710    -1.42838645
C    -3.65658934     3.66589271     1.18741378
C    -3.86892562     4.03043342    -0.13398924
H    -3.11920085     4.02217445    -2.08130743
H    -4.47916220     3.68553998     1.89010784
Cl     6.85217247    -1.17146470    -0.84750726
Cl    -5.48324256     4.46337084    -0.63315449
N     2.07211286     1.75317479     1.06840863
H     2.12456301     2.08368792     2.01907410
C     0.86980835     1.86320674     0.38784184
O     0.62722835     1.61437696    -0.76908213
N    -0.13934920     2.48525330     1.09700517
H    -0.01025859     2.71430829     2.06999927
H    -2.31192913     2.96959659     2.64522002
H     2.70632693     1.30425578    -1.48206092
Cl     4.84348451    -0.19709879    -2.92797706
