%nproc=8
%mem=4000MB
#opt=(noeigen,calcfc,ts,recalc=5,maxcyc=200) freq B3LYP/SVP em=GD3BJ

ts-3547.gjf

0 2
O  -3.08276222208201  -0.88531266121014  -1.10876144796325
Cl  -0.29480063585086  -0.35048678652230  -2.56845961519911
H  -3.50557857991102  -1.12642521658299  -2.01225225491207
C  3.06580953872658  -0.65868641495435  -5.63178352358863
C  1.87441693748972  -1.39539886972953  -5.69345633878255
C  1.28531318967344  -2.04993925795119  -4.65955063433987
C  1.93826344080717  -1.92743621821850  -3.42586752494400
C  3.24835153178293  -1.42868232474143  -3.28591840784028
C  3.75546330199710  -0.65500757490246  -4.39889621888233
H  1.33040109260738  -1.43213770696430  -6.62521522937587
H  0.42391691982235  -2.69199865610480  -4.71343374239901
C  -0.29059837216027  -2.09209912344931  0.69126456489478
C  -2.30139080614918  -1.89281642142102  -0.74594640088233
C  0.16606086145231  -1.68846703190158  1.95289170199919
C  -1.52422811225989  -1.50484987824070  0.43835576025225
C  -0.78487656387709  -0.89265193908143  2.53598912660410
C  -1.83330165623966  -0.63928404092637  1.61698531418222
H  -0.64219630000988  -0.37066515479205  3.45095662180092
Cl  3.70820005119125  0.44552072736917  -6.74702442616779
Cl  -2.68412339478661  0.93164353536044  1.63973406878034
N  1.50498111411848  -2.66766259417146  -2.41302877893369
C  1.08982803905256  -2.82183217089013  -1.27171558079833
O  -2.18830472911235  -2.92589629065167  -1.46788988211438
N  0.53031984091747  -3.19768669236506  -0.13879521608201
H  -0.29100925307155  -3.74927078111243  -0.30220403689164
H  1.13999418109068  -1.84904473046421  2.42925370161376
H  3.72986386233941  -1.28953239266498  -2.34862604510085
Cl  5.10962234116359  0.25065563693351  -4.13247737568386

