%nproc=8
%mem=4000MB
#opt=(noeigen,calcfc,ts,recalc=5,maxcyc=200) freq B3LYP/SVP em=GD3BJ

ts-3557.gjf

0 2
O  -3.50627303370221  -0.67799629508235  -0.84956079522383
Cl  -0.21611105402851  -0.61205905355974  -2.27288859520488
H  -4.04835233469972  -0.70916070995025  -1.72501909026919
C  3.07024341589637  -0.53586617960513  -5.39321022307350
C  1.84801282259201  -1.17789730620498  -5.37542273012101
C  1.37709845621055  -2.05881045357272  -4.50739675547200
C  2.13466563405832  -2.25678494626750  -3.31755499347065
C  3.46305186973087  -1.76275364444388  -3.39806752046340
C  3.87747735793632  -0.67937520374838  -4.27442147761518
H  1.31971195974471  -0.98434135844319  -6.28815012080075
H  0.38916599222321  -2.47303788681011  -4.51950988288624
C  -0.78312853412256  -2.42558415110804  0.64823757384632
C  -2.53898543817521  -1.65404251191840  -0.72405839218635
C  -0.12778728273044  -2.22524378670149  1.87484662996609
C  -1.78325313928063  -1.51872293371951  0.49019196798495
C  -0.74177923606070  -1.17227945465439  2.53852001524402
C  -1.64757611086779  -0.64249103522045  1.68216615108399
H  -0.58150031399780  -0.79979582130521  3.54069614907473
Cl  3.36006293796738  0.74859193060996  -6.71696842958977
Cl  -2.62733780174902  0.62033635964470  1.90630470985262
N  1.65087269881610  -2.72305189992146  -2.08665226173011
C  0.51278850125643  -2.38535253368469  -1.51738893780473
O  -2.28252309208755  -2.46367064739747  -1.56045378197614
N  0.11784874004424  -2.98594482489522  -0.40525646618615
H  0.79221866117170  -3.59988477725680  0.03176367953853
H  0.69445929318217  -2.84498821011170  2.27209151258487
H  4.13432802169667  -1.87338667782165  -2.54015156058738
Cl  5.38892683037001  0.11437716114915  -4.27944125476169

