%nproc=8
%mem=4000MB
#opt=(noeigen,calcfc,ts,recalc=5,maxcyc=200) freq B3LYP/SVP em=GD3BJ

ts-3567.gjf

0 2
O  -3.55453772068979  -0.39827222141729  -0.35507737173067
Cl  -0.11436721538726  -0.69510712238984  -1.93062227498438
H  -4.56310224920014  -0.47838071873882  -0.49097741480080
C  2.91684017044993  -0.47803455333442  -5.30701838599297
C  1.62201255851481  -0.99277273408340  -5.27548275030049
C  1.34793410106834  -1.86445893183265  -4.32179569709651
C  2.24573803903082  -1.92557552769033  -3.20588395888327
C  3.40768633089898  -1.20725790633997  -3.09418149358833
C  3.82542341338080  -0.43489926728243  -4.22352893627644
H  0.96841202402309  -0.64020802065755  -6.06145040617108
H  0.43809156042087  -2.39746177332294  -4.11510008275714
C  -0.66267775672987  -2.37022055221116  0.22280939030468
C  -2.61982237579950  -1.20819142530138  -0.70775978383543
C  -0.22497076279154  -2.46918651264087  1.57609277687952
C  -1.50369321819546  -1.25216015508539  0.16399696446550
C  -1.00505100221487  -1.68072169999767  2.45680378285681
C  -1.58882182803730  -0.80403413436405  1.59697668860856
H  -1.20666889752887  -1.92223436554170  3.49235794765468
Cl  3.09850737659850  0.77315255317369  -6.34562493546822
Cl  -2.61737828160147  0.45264744425280  1.93397982428965
N  1.84396377117488  -2.72612394328677  -2.07949664794612
C  0.73808505040799  -2.59481855358596  -1.57971438769249
O  -2.67764573231247  -1.99925828767145  -1.63784077406676
N  -0.00572463358387  -3.26051432016127  -0.82554166457940
H  0.31243682599687  -4.19194601902628  -0.61940326498092
H  0.45080193183558  -3.25754299726728  1.85423312874017
H  4.06515741538122  -1.38035816395102  -2.24633599167517
Cl  5.47488892141883  -0.17183250876602  -4.35425801790881

