%nproc=8
%mem=4000MB
#opt=(noeigen,calcfc,ts,recalc=5,maxcyc=200) freq B3LYP/SVP em=GD3BJ

ts-3577.gjf

0 2
O  -3.42111054617260  -0.03603383225784  -0.40112077264555
Cl  0.23742218650885  -0.78090889323237  -1.75891824359631
H  -4.12996550645031  0.19075165029264  -1.07960795185084
C  2.82821243220351  -0.06417357661728  -5.21432819637738
C  1.70167027558699  -0.80059214699189  -5.16766244521778
C  1.52620732983396  -1.76197391874890  -4.22618976340827
C  2.29803899902964  -1.93482564563063  -3.13233444694630
C  3.55168746025859  -1.43017641156369  -3.13317529895556
C  3.72249391907117  -0.46720460580103  -4.20806717424605
H  0.84067792610465  -0.63691145273831  -5.79425120182947
H  0.65237439538534  -2.40285681800924  -4.27638075177837
C  -1.00097557140372  -2.73597102663603  0.39849843758931
C  -2.86115808136167  -1.25716790000359  -0.79828152352281
C  -0.47914808715425  -2.84160081191851  1.76138005347442
C  -1.96655269382986  -1.67701550121989  0.37605637004276
C  -0.89787561219674  -1.77153760414915  2.54548309595695
C  -1.78824564033328  -1.06041063093385  1.79484030182372
H  -0.66303414753310  -1.81392260045804  3.57968756879202
Cl  3.15295469619132  1.10798368815246  -6.40835125643150
Cl  -2.54468735795009  0.35578860364737  2.22170640855161
N  1.69331597640312  -2.74919592585923  -2.12250584436276
C  0.68957873025552  -2.39414573267220  -1.44031568331184
O  -3.16681503301169  -1.55827181512498  -1.95402264709910
N  -0.17857208732006  -3.17895641564729  -0.75887177812619
H  0.34589265566832  -3.95762976763939  -0.39933337082378
H  0.03222180592132  -3.69614871029191  2.11743660029988
H  4.37630683235034  -1.60620308485089  -2.49004703059394
Cl  5.41501344386998  -0.14819078233256  -4.45995482095713

