%nproc=8
%mem=4000MB
#opt=(noeigen,calcfc,ts,recalc=5,maxcyc=200) freq B3LYP/SVP em=GD3BJ

ts-3587.gjf

0 2
O  -3.16731973693110  0.15846388011791  -0.35572572558216
Cl  0.18403297631257  -0.61088606496805  -1.36938253734816
H  -3.91521772740917  0.48574835262870  -0.85167287935436
C  2.82424736541159  -0.23137201847606  -5.13863118375068
C  1.50307996922506  -0.68958029131156  -5.19522048703661
C  1.11368974900992  -1.59208201064471  -4.28064579214845
C  2.02203046579553  -1.85953583857410  -3.31168031335790
C  3.37860623354448  -1.57029814568216  -3.32325029113594
C  3.79739595668270  -0.62120652079121  -4.32607503777751
H  0.93773030837394  -0.35192483045594  -6.03931838355496
H  0.11063242584070  -1.97644894066958  -4.26191834691925
C  -0.84279960137633  -2.59919981426284  0.28115928737154
C  -2.65127700530941  -0.98896460400349  -0.63290644651332
C  -0.62591841082620  -2.99481615085579  1.58830307753963
C  -1.73411418587138  -1.36372221441013  0.41271532268671
C  -1.35524620032945  -2.26202893030213  2.53613042289411
C  -2.04358171111764  -1.36296683469976  1.78509299221258
H  -1.31296122307145  -2.30786755436529  3.59060679279770
Cl  3.26229702233414  1.20109271864801  -6.19603333679049
Cl  -2.59166622379868  0.18045792784167  2.50634949222224
N  1.46215690537326  -2.77669373583601  -2.28786650697199
C  0.62114239947995  -2.21329832907127  -1.49606901980196
O  -3.00958115357309  -1.62788670010639  -1.58624538296462
N  -0.19148906095758  -3.09501582721598  -0.89962540643899
H  0.25326800183337  -3.95662378448085  -0.64763604402458
H  -0.07682617312541  -3.94515567502984  1.69521725934342
H  4.11642639726640  -1.69489456914410  -2.54464819942549
Cl  5.52558063321017  0.14133173244614  -4.46302416779589

