70
 energy: -143.139239409137 gnorm: 0.113521471809 xtb: 6.6.1 (8d0f1dd)
O    -2.99467142    -0.81586784     3.27485049
H    -3.88278822    -0.85222739     3.63438429
H    -2.91428633    -1.57744720     2.69789833
O    -1.26946463     0.60087440    -1.80146214
H    -0.85568487     1.44854192    -1.62945961
H    -2.09502951     0.51008386    -1.32236115
O    -0.03380538    -0.03403042     3.20512885
H     0.35330677    -0.38052366     2.39925961
H    -0.94905006    -0.27509415     3.05165634
O    -1.74940263    -1.09856134     0.93139495
H    -2.47579448    -0.64017686     0.50527580
H    -1.13787417    -1.48301362     0.30086513
O     1.00856493    -1.53087144    -3.88938254
H     1.95252139    -1.69154785    -3.83969877
H     0.91372659    -0.62034115    -3.60428890
O     0.55468004    -1.30192383    -0.79346940
H     0.21497672    -0.52914475    -1.24816946
H     0.21559827    -2.02367327    -1.32586095
O    -0.29030747    -3.16324920    -2.38824128
H    -0.13002962    -2.55314641    -3.11033755
H     0.26672591    -3.91721605    -2.58970193
O    -3.10306478    -2.27620961    -2.67150675
H    -2.15268811    -2.34730173    -2.77671260
H    -3.51059341    -1.80751580    -3.40197445
O     0.83618960     1.47879919    -3.84131879
H     1.59404187     1.46791427    -4.42858369
H     0.15926148     1.94641759    -4.33369992
O    -3.90484626     0.23693614    -0.94402336
H    -4.01513699    -0.48082220    -1.57012020
H    -4.34692536     1.00050269    -1.31935054
O    -1.77524891     0.03606455    -4.46297017
Cl    -3.21761305     0.93968399    -4.52793022
H    -1.42373300     0.22967627    -3.58573732
O     3.51567342     2.37088821     5.05995469
Cl     3.80947284     4.04815423     5.10026913
H     2.56672060     2.22524720     4.96580406
O     1.81457461    -1.89408674     1.38089449
Cl     1.09807873    -3.17320100     2.24788019
H     1.34150688    -1.74577087     0.55337080
O     0.68512635     1.87479244     5.05490972
Cl    -0.76296031     2.70275578     5.39941309
H     0.51075781     0.93961375     4.89483318
C     4.73910671    -0.46755447    -0.14594912
C     4.57074532    -0.40053731     1.23168857
C     3.57279360     0.44041611     1.68619777
C     2.75230377     1.21789947     0.86205768
C     2.89161582     1.05535988    -0.51600926
C     3.86483727     0.19167630    -1.00518422
H     5.31984954    -0.84715620     1.87216442
H     3.37838455     0.39599012     2.75213724
C    -1.73637889     3.01419943     1.06362452
C    -1.90001079     3.67657422    -0.15553984
C    -2.81660157     2.57888135     1.83658914
C    -3.17451412     4.00355689    -0.60095330
H    -1.01174980     3.93475186    -0.70934732
C    -4.09668663     2.86183257     1.38894736
C    -4.20023593     3.67905294     0.27292274
H    -3.32160165     4.67738227    -1.43501553
H    -4.94054719     2.54677995     1.98847406
Cl     5.83135362    -1.60070311    -0.87270859
Cl    -5.82888931     4.28301527     0.11374484
N     1.61733971     1.88324787     1.35063014
H     1.36736250     1.69877018     2.30939711
C     0.54755463     2.35981197     0.60950887
O     0.51190937     2.43756249    -0.59544697
N    -0.44589686     2.67841094     1.51493821
H    -0.39301181     2.43797439     2.49230277
H    -2.64968306     2.03640805     2.76140533
H     2.26731031     1.54727156    -1.24417852
Cl     3.92108583    -0.10569039    -2.71215767
