%nproc=8
%mem=4000MB
#opt=(noeigen,calcfc,ts,recalc=5,maxcyc=200) freq B3LYP/SVP em=GD3BJ

ts-4660.gjf

0 1
Cl  -0.32342786136448  -4.02069066484951  -0.69653633665672
C  0.98450895086523  -1.84236357636371  -2.84157975088654
C  1.73958895669294  -2.38196103768639  -1.76878610642497
C  0.12118111107599  -0.62310664615446  -2.59761858827905
C  1.90259973327269  -1.52607875707588  -0.68425106167332
H  2.46278944954323  -3.17964274349622  -1.91585149991121
C  0.03285301156409  -0.01471646889441  -1.38571083522839
C  0.90703302644420  -0.50548264034823  -0.45681703355585
H  2.49180064616875  -1.61423003342498  0.20499211687110
H  -0.68170881694261  0.76165908120018  -1.15012633873555
Cl  1.04734578687035  0.37594501454382  1.05877340081694
N  1.11394215886704  -2.35515348051769  -4.08221108857142
H  0.81040065352909  -1.88781001284951  -4.93320633345628
H  -0.29255925869221  -0.16674115778706  -3.48582608930434

