%nproc=8
%mem=4000MB
#opt=(noeigen,calcfc,ts,recalc=5,maxcyc=200) freq B3LYP/SVP em=GD3BJ

ts-4670.gjf

0 1
Cl  -0.14011691091973  -4.06791171093588  -0.14511738027803
C  1.23293776182333  -1.86439177217160  -2.94434486131517
C  2.16188989112965  -2.10564599962205  -1.98815794349519
C  -0.05264077932457  -1.19166673833678  -2.55996604065441
C  1.87616246092993  -1.72964710499355  -0.68570831612182
H  3.03786129114805  -2.67691272883842  -2.17120379699199
C  -0.17138916037646  -0.53818757796992  -1.37239871852042
C  0.80150935693621  -0.73189480601484  -0.40482611885804
H  2.61480880896587  -1.90789088126511  0.06628029639931
H  -1.13847445984352  -0.12591719485374  -1.16016162904047
Cl  0.65270683601163  0.34687604803771  0.92802804009796
N  1.46025783373044  -2.41776600512640  -4.12171776411828
H  0.79377201940133  -2.27624981224384  -4.88668338860833
H  -0.89798211519841  -1.23966390208374  -3.22330435847854

