%nproc=8
%mem=4000MB
#opt=(noeigen,calcfc,ts,recalc=5,maxcyc=200) freq B3LYP/SVP em=GD3BJ

ts-43.gjf

0 1
O  0.63658380562820  2.11250191314409  2.87691756655564
Cl  -1.12361985525063  1.10487424989523  5.33336972557507
H  0.41556415072237  1.92226814308031  1.90850994347467
C  -5.64547163054010  -1.52205892615267  1.86897520261450
C  -5.03719923068375  -0.44283360035534  2.53510398306277
C  -3.64868357672458  -0.49301385959286  2.78601752957743
C  -2.93724309586365  -1.62413373553265  2.40190448245272
C  -3.61880017947295  -2.75056388386019  1.82879455769284
C  -4.99681146600492  -2.70823617950384  1.54165180179165
H  -5.62846481982225  0.43188878401271  2.75787249038225
H  -3.23552552653744  0.31613619003431  3.44839044268713
C  1.86532780095756  -2.00086800907293  1.93711788459057
C  2.24902618969396  -3.18084202720355  2.61689979004319
C  2.83260717351360  -1.31405772217021  1.20850369785069
C  3.46674932799086  -3.74733021892880  2.19393960045567
H  1.59594682136922  -3.78193491447381  3.29560133107085
C  4.11543768528275  -1.70948185974495  0.96226111075419
C  4.37881079595777  -2.98828192368268  1.48995833335645
H  3.75727715412676  -4.71447246737264  2.49420254284921
H  4.67163904903433  -1.36304990514747  0.09150122820363
Cl  -7.23681879936737  -1.27861768976816  1.05467135698219
Cl  5.56738021180342  -3.91269848762098  0.73438646323369
N  -1.58091661244975  -1.61961628503166  2.46277781346749
H  -1.18009877649555  -0.74487409776276  2.81296898669804
C  -0.50219206226409  -2.40973695765952  1.95537932231213
O  -0.62974367241136  -3.54121128773913  1.53010134721399
N  0.56163113395447  -1.61591386559294  2.10088032904009
H  0.19200521474304  1.49472896411176  3.61158695781517
H  2.44036947651306  -0.50583139818943  0.58251009166222
H  -2.97064229435716  -3.58130966583093  1.65775701639228
Cl  -5.92079350637043  -3.86882336428784  0.74548847281988

