%nproc=8
%mem=4000MB
#opt=(noeigen,calcfc,ts,recalc=5,maxcyc=200) freq B3LYP/SVP em=GD3BJ

ts-3338.gjf

0 2
Cl  -2.28420161412863  3.25088818368758  -3.17009652920752
O  1.09043150733960  1.79283989139566  -4.41338009443769
H  0.20184633439109  1.83249778971104  -4.80868624801806
H  0.00794430413549  2.56789121837492  -2.47364934094772
C  3.01311143850022  -0.40690695590594  -2.31424596177296
C  2.74872242010422  -1.03503268869285  -1.07545847478894
C  4.36913021914513  -0.23969793879267  -2.80923428640823
C  3.83159206088596  -1.47418267096328  -0.34204743333854
H  1.74048293534589  -1.34045085661010  -0.81327916320869
C  5.36418054968843  -1.05969145060504  -2.25647332329920
C  5.11162236523907  -1.50692833086029  -0.91988556003367
H  3.68891078137067  -1.91525331515849  0.64770762242205
H  6.37167456709750  -0.84492592420032  -2.55855560486907
Cl  6.41845287275192  -2.27351807871713  0.02684366581613
C  1.17615913325920  1.09863097525379  -3.23728937892229
O  0.30751279785623  1.46322454985061  -2.33248232344941
N  2.17793232314188  0.30579216017696  -3.24060733003180
H  4.36299487513745  0.43969499219243  -3.65128125242447

