%nproc=8
%mem=4000MB
#opt=(noeigen,calcfc,ts,recalc=5,maxcyc=200) freq B3LYP/SVP em=GD3BJ

ts-3368.gjf

0 2
Cl  -1.43935475598160  2.55780940368449  -3.83003875124459
O  0.63746066476201  0.76607885421389  -4.24973182020557
H  -0.44987836990606  1.64125262103407  -3.93865825890933
H  0.95057286533491  1.00156489815303  -1.37451149861077
C  3.60187770740746  -0.48102311672118  -2.76734936877798
C  3.50619880103687  -0.42593609727429  -1.33383759138740
C  4.95029359757201  -0.46588386041944  -3.35177310204295
C  4.39262366732044  -1.16412591014444  -0.63954160476055
H  2.58175977633179  -0.05508127387070  -1.01229853647045
C  5.94492401334588  -1.01117841598487  -2.52012180494657
C  5.73844945193862  -1.37244643738143  -1.12194928978841
H  4.15925190873734  -1.33034499556896  0.41898387804188
H  6.92266119389283  -1.16771562331109  -2.89524450047463
Cl  6.67882083554491  -2.62455518249701  -0.78519935343713
C  1.39694187775751  0.37693572589771  -3.33886450794266
O  0.71354067933307  0.27330454256200  -2.11343344959923
N  2.57577332960348  -0.04611113624848  -3.55952976265847
H  4.92030774213427  -0.25285319132564  -4.42650338855005

