%nproc=8
%mem=4000MB
#opt=(noeigen,calcfc,ts,recalc=5,maxcyc=200) freq B3LYP/SVP em=GD3BJ

ts-3388.gjf

0 2
Cl  -1.74082584185679  2.49697891324128  -3.89522306697358
O  1.14030231445489  -0.68329772901530  -4.69447558445910
H  -1.77584343913449  1.44062073068557  -4.57820291550958
H  1.16988612760327  1.23820600862706  -2.27631562308262
C  3.88247078369858  -0.72288148470189  -2.97476746399652
C  3.70194797553504  -0.99561195214402  -1.62032991978082
C  5.22848128173393  -0.81055287777248  -3.54085376606145
C  4.66874606124701  -1.63242445272205  -0.85130589144846
H  2.77399683480641  -0.51360332780933  -1.21387221034519
C  6.24731448641061  -1.32217372822124  -2.76159665635866
C  5.97060460738644  -1.61318647684088  -1.32249369422466
H  4.25759648698045  -2.03248442251874  0.06871085531033
H  7.26002693565740  -1.32500521647019  -3.19417895723450
Cl  7.45243207934764  -2.13144528731884  -0.54005007678996
C  1.49908156492206  -0.06290663269735  -3.72977016502443
O  0.65025692683131  0.56725571065798  -2.88948792310043
N  2.84160930760360  -0.16647133656551  -3.60687150961002
H  5.53045583884667  -0.32130339576146  -4.41978048446783

