%nproc=8
%mem=4000MB
#opt=(noeigen,calcfc,ts,recalc=5,maxcyc=200) freq B3LYP/SVP em=GD3BJ

ts-1809.gjf

0 1
O  -4.49937998583004  0.10765965209529  -3.68035495394104
H  -3.92943129494386  -0.29312025325865  -4.31682045800205
C  0.86847614477899  3.75051802038904  3.03837549654167
C  1.62277536983410  3.36272928658823  1.92919712259231
C  1.49130710224312  3.86731576439322  0.61774585294791
C  0.37505949782826  4.79797573810169  0.54638805787571
C  -0.13393969088932  5.50441150676931  1.71998940397551
C  -0.05107831521650  4.79080598731824  2.86083572801186
H  2.22203132923423  2.46316083854782  2.09893870296165
H  1.96779894345234  3.60889824505877  -0.31920057910849
C  -2.48969170982619  2.20602928170711  -0.97237103290643
C  -1.86942585681073  1.96189686676113  -2.28254417146616
C  -3.88442211753533  1.95370871137762  -0.70652255246971
C  -2.72744517771803  1.58766343874472  -3.26686040083111
H  -0.84863499202582  2.36517004522920  -2.27731931688520
C  -4.60040271575907  1.18587177365831  -1.60171703690456
C  -3.83646257458411  0.87194721009218  -2.77125261964819
H  -2.58691854629639  1.74701163600574  -4.28083267448058
H  -5.51633461272064  0.68500831749843  -1.40032846188487
Cl  0.90194961583762  2.81682232843646  4.48798186229841
N  -0.22481746229708  4.99181190140060  -0.65786041791391
C  -1.33034532427845  4.38565405859454  -1.15230474091375
O  -1.99731957289889  4.60919171504831  -2.13687808767401
N  -1.77028682393636  3.25940556266540  -0.43366235997063
H  -4.23288818841015  2.28630458097064  0.25477535046500
H  -0.77682315578204  6.32461380576520  1.47851038414060
Cl  -0.80200003538689  5.16310111641297  4.45988237132120

