%nproc=8
%mem=4000MB
#opt=(noeigen,calcfc,ts,recalc=5,maxcyc=200) freq B3LYP/SVP em=GD3BJ

ts-1819.gjf

0 1
O  -4.59571516378264  0.73363574604585  -4.15768652797027
H  -4.03703980729132  1.17400819772692  -4.78274595719415
C  0.86631241992205  3.86603259724450  3.06151304868773
C  1.07128332038100  3.04673141873660  1.93003051429843
C  0.79354109732002  3.67422762275595  0.68972708559887
C  0.04534362596877  4.85036085236189  0.71634067963890
C  -0.11873588608829  5.66432107776477  1.80569424501021
C  0.07206980873435  5.04169522528190  2.97427378806702
H  1.71003497196281  2.20955283282448  1.84610975694342
H  0.71260325199203  3.23284328553125  -0.28615726055980
C  -2.86765393287821  2.85077257396292  -0.91057071034745
C  -2.23137341588972  2.86668239666892  -2.22387678947405
C  -4.00304206550828  2.03984686021958  -0.67793244189293
C  -2.89531164818218  2.09961542695931  -3.26660305391950
H  -1.17780538098968  2.71538830606853  -2.32626825110232
C  -4.58719046268869  1.35888235219496  -1.73124623671551
C  -4.01104853764806  1.35246155854254  -3.06111393034446
H  -2.13999541606934  1.95863488635566  -4.06097625038018
H  -5.36796311423172  0.62689554543028  -1.51572030400848
Cl  0.68715817041151  3.12426223171762  4.66027024565717
N  -0.52092539046358  5.29240763140606  -0.44090422578566
C  -1.56201474507257  4.75066483214421  -0.97839616711936
O  -1.82719341811587  4.59562863924668  -2.18338517215843
N  -2.30489350982175  3.85600075036124  -0.11891167796742
H  -4.39398757810489  1.94145379040141  0.33948346674781
H  -0.93723426734430  6.37669993306250  1.68769044129291
Cl  -0.79829738561135  5.50424327546700  4.32819218073954

