%nproc=8
%mem=4000MB
#opt=(noeigen,calcfc,ts,recalc=5,maxcyc=200) freq B3LYP/SVP em=GD3BJ

ts-3580.gjf

0 2
O  -0.91730239727370  -3.96932725639280  -3.85854995431228
Cl  0.00279320292469  -6.60164294084268  -5.86716328143775
H  -1.28196870119741  -4.55658866127537  -3.22120660623128
C  2.04635326471746  -5.29961339181416  -2.68691298602985
C  0.88277789559105  -5.21537565791355  -3.19046680741680
C  0.34945259945559  -3.79570499492074  -3.57154135390246
C  0.64155301381714  -2.87744575405693  -2.34140636990648
C  2.10365738138439  -3.00588895605842  -1.72535845642478
C  2.84103487885162  -4.07368028172317  -2.22653220882282
H  0.44159319336835  -6.24109746511778  -3.17883464866074
H  0.79477904563361  -3.29111246585622  -4.43712383291198
Cl  2.80328034380603  -6.77805808750972  -2.39493664756978
N  -0.23354671073528  -2.02238892272757  -2.03479386096375
H  0.00800720794740  -1.51173500229000  -1.18971903687370
H  2.42688109239268  -2.10488531254248  -1.19149129443904
Cl  4.55361834723474  -4.00903054705205  -1.53968738050529

