%nproc=8
%mem=4000MB
#opt=(noeigen,calcfc,ts,recalc=5,maxcyc=200) freq B3LYP/SVP em=GD3BJ

ts-3620.gjf

0 2
O  -1.30816202235224  -2.51903576510850  -2.90212383575738
Cl  -0.37527687008588  -4.64630779536651  -4.71509544533757
H  -1.89493330140108  -2.91823937079588  -2.27043514062761
C  1.31912917970285  -5.14496876762894  -2.64254491186825
C  0.13459749834473  -4.43383146824517  -2.71633448331558
C  0.08744638940323  -2.97325273492447  -2.60732363637000
C  1.10970632176030  -2.35434907802533  -1.65859710274771
C  2.44006429738391  -3.01728120052342  -1.85312128128767
C  2.43480940850278  -4.33973407751315  -2.22748735597818
H  -0.66585656731163  -5.13802662472740  -2.37461225215964
H  0.67683690594257  -2.58254906546861  -3.50091315594634
Cl  1.43813973272636  -6.62552147417150  -3.05305933799544
N  0.86709899227798  -1.31198503450371  -1.01642103333004
H  1.57559034213737  -0.67331588269844  -0.62339887087192
H  3.26477006217878  -2.46714561662406  -2.34593145401063
Cl  4.07033138448437  -4.58856613132145  -2.80069830065959

