70
 energy: -143.132714481876 gnorm: 0.110019402372 xtb: 6.6.1 (8d0f1dd)
O    -1.96447151    -1.76647673     2.14941807
H    -2.68402779    -1.43267722     2.68807814
H    -2.36272139    -1.96390385     1.29985450
O     0.28964661     0.93538133    -3.33669395
H     0.34506437     1.79689313    -3.75390504
H     0.39649552     1.03641423    -2.38921638
O    -2.14886419    -0.02056897     3.88117514
H    -2.81406521     0.01093419     4.57099670
H    -1.84126101     0.88752569     3.89027135
O     0.88631744     0.91024954     3.87779599
H     1.40284716     1.71498710     3.80755716
H     1.45073857     0.19344837     3.58290054
O    -0.05931918    -2.24149561    -1.54265757
H     0.28636022    -2.77692132    -2.25901241
H     0.63809585    -1.59648838    -1.41259583
O     1.19179101    -3.96240857    -3.38777636
H     0.73974275    -3.50255007    -4.09736815
H     1.48925113    -4.82262544    -3.68924587
O    -2.51947792    -1.53787346    -0.59249144
H    -2.63301084    -0.70220064    -1.04866975
H    -1.76418132    -1.94077685    -1.02438784
O    -0.31685704    -2.36124047    -4.94118935
H    -1.12626357    -2.68265180    -5.34230530
H    -0.68568106    -1.71740182    -4.33391910
O    -0.59709896     3.72714667    -2.11727310
H    -0.06935348     4.42302437    -1.72157430
H    -0.42559341     2.99722125    -1.51966742
O    -2.46225222    -1.78595754    -3.60677561
H    -2.64159738    -0.91124386    -3.25741961
H    -2.74229370    -2.31824455    -2.86005906
O    -2.44963672     0.81292458    -2.36770060
Cl    -3.65361966     1.86054485    -2.96274603
H    -1.62213086     1.11291957    -2.76244541
O     2.52112246     2.85854060     2.87699880
Cl     2.77570877     4.34710486     3.66473412
H     1.70481454     3.04887749     2.39950498
O     0.59856952    -1.95766857     3.12843084
Cl     0.37128761    -2.16213999     4.80404958
H    -0.33859670    -1.86714070     2.91840629
O    -1.37467444     2.78307313     4.01230292
Cl    -1.16565840     4.45760878     4.24339483
H    -0.54411099     2.36915970     4.27579506
C     4.95050180    -1.32815839    -0.80439581
C     4.57450940    -1.66152547     0.49106495
C     3.40483727    -1.22482185     1.08338744
C     2.57860952    -0.43330804     0.27856172
C     2.91978152    -0.10002837    -1.03194268
C     4.17741919    -0.42441186    -1.52744675
H     5.31120022    -2.31660245     0.93715426
H     3.05706083    -1.51230630     2.06949075
C    -1.71965039     1.84634435     0.81353023
C    -1.27554996     3.16565871     0.93211319
C    -3.10168408     1.67686920     0.69057398
C    -2.10315919     4.27793054     1.01919889
H    -0.22071473     3.38818916     0.94510793
C    -3.95276439     2.76543307     0.78933309
C    -3.47003238     4.05223536     0.97692902
H    -1.58624819     5.22263898     1.12719990
H    -5.02344690     2.66055526     0.67344223
Cl     6.44125746    -1.95803612    -1.42577335
Cl    -4.51500363     5.44711238     0.90640872
N     1.22797257    -0.27091836     0.62344490
H     0.97203016    -0.59681587     1.54216087
C     0.40062349     0.78652938     0.27977064
O     0.70060042     1.64632864    -0.51395060
N    -0.85997636     0.73192568     0.84205163
H    -1.15803230    -0.05594446     1.39546952
H    -3.51985486     0.67898633     0.60819039
H     2.23298010     0.45776552    -1.64768185
Cl     4.65726502     0.09628331    -3.10984168
