70
 energy: -143.147353682940 gnorm: 0.116211453112 xtb: 6.6.1 (8d0f1dd)
O    -1.53540637    -0.75078379     3.76970543
H    -1.96721274    -1.60378085     3.84235053
H    -1.82350385    -0.28725836     2.98136369
O    -1.86945226     0.76067940    -2.39246971
H    -1.49685846     0.71331006    -1.51027427
H    -2.75862038     1.03426064    -2.16036753
O     1.10610181    -0.30299599     3.15563927
H     1.53725760    -0.77144901     2.43870478
H     0.26970599    -0.71994636     3.36995862
O    -2.29304551    -0.72505559     1.00468423
H    -2.81478994    -0.58270742     0.21294013
H    -1.51815230    -1.17663798     0.66563806
O     0.76368958    -0.87992853    -3.57014204
H     0.88782381    -0.90452741    -4.52057603
H     1.16931266    -0.08586477    -3.21762143
O     0.22265313    -1.13890016    -0.73322447
H     0.33510433    -0.23849693    -0.42343949
H     0.45698825    -1.12082364    -1.66279413
O    -3.25331801    -2.49801094    -4.24933880
H    -2.64465500    -2.06983785    -4.85393336
H    -2.70709225    -3.01126232    -3.65138477
O    -4.93290815    -0.51366941    -3.34794762
H    -4.31385735    -1.21503665    -3.55818150
H    -4.82211208     0.20569187    -3.97211113
O     1.55785808     2.01763405    -2.80516423
H     1.32386508     2.34846741    -3.67414937
H     0.80073703     2.12777746    -2.22725943
O    -4.03155359     0.22533420    -0.79616294
H    -4.39924354    -0.10222250    -1.61887130
H    -4.73703001     0.61214543    -0.27460912
O    -1.68015492    -0.02015315    -5.15216665
Cl    -2.83339743     0.92402966    -5.97661357
H    -1.77037542     0.29094914    -4.24350718
O     1.49808852     4.26051915     3.43286720
Cl     1.87016456     5.02566056     1.95730538
H     2.06386432     4.62239070     4.12535101
O     1.39621806    -2.39467093     1.21088833
Cl     1.06564824    -3.97606663     1.75040206
H     0.91802090    -2.06501904     0.44066548
O     0.57689500     1.66523295     4.94503887
Cl     0.26017475     1.13810629     6.53343006
H     0.68336117     0.83789631     4.46051114
C     5.25484199    -0.42338326     0.45546533
C     5.10284791     0.09890288     1.73407304
C     4.00396349     0.89661523     1.99058244
C     3.03068282     1.07501919     1.00175093
C     3.22331874     0.53708411    -0.27041765
C     4.36684716    -0.18597764    -0.58967644
H     5.81202529    -0.08365385     2.53067549
H     3.94316825     1.36874985     2.96494808
C    -1.51234962     2.79070041     1.78815325
C    -1.74909530     3.41612258     0.56150086
C    -2.53404094     2.78877542     2.74209262
C    -2.96940516     4.02194374     0.29040284
H    -0.89298860     3.48758267    -0.08991360
C    -3.79418889     3.30357245     2.48504494
C    -3.97464442     3.87233245     1.23283473
H    -3.20366764     4.51602333    -0.64358948
H    -4.56905571     3.20361922     3.23363149
Cl     6.62670440    -1.43845005     0.15076613
Cl    -5.59630596     4.29391555     0.74796210
N     1.93357658     1.73810653     1.57289732
H     2.00117554     1.83278554     2.57400723
C     0.62676082     1.80934954     1.11685862
O     0.35195798     1.56299105    -0.03336973
N    -0.24733309     2.25213953     2.09058874
H     0.04204712     2.27762657     3.05570923
H    -2.24951294     2.37645748     3.70462148
H     2.63872055     0.91694508    -1.09255854
Cl     4.66687993    -0.86663390    -2.15557454
