70
 energy: -143.140912644065 gnorm: 0.119351832648 xtb: 6.6.1 (8d0f1dd)
O     0.69815900    -3.96644827    -1.14338294
H     0.45393941    -4.49656861    -0.38268113
H     1.28817041    -4.50412065    -1.67454548
O    -2.17768087     1.39319509    -2.11438523
H    -1.78838335     1.65757233    -1.27898658
H    -2.70296829     0.62849404    -1.87222101
O    -0.12069429     0.77378454     3.40658327
H    -0.81992986     0.47373343     2.82316442
H     0.54847600     0.10644072     3.24471382
O    -1.92743110    -0.25426391     1.47468280
H    -2.80558114    -0.62567291     1.37345616
H    -1.33935250    -0.58588003     0.79385039
O     0.23229962    -2.43249112    -3.48606936
H     1.13484559    -2.65207856    -3.24830620
H     0.20410997    -1.47648740    -3.55389518
O    -1.42061227    -4.35583801    -2.87120055
H    -0.85436162    -3.58481308    -2.80624874
H    -1.59140335    -4.36896213    -3.81459740
O     0.00932798    -1.35606979    -0.47584782
H     0.45192551    -0.68476949    -0.99815114
H     0.04505661    -2.15705419    -1.00166722
O    -3.75481286    -3.19192797    -1.70036045
H    -4.38223425    -3.67362426    -2.24225460
H    -2.89398704    -3.41751546    -2.05732781
O     0.10654995     0.19610473    -3.22131810
H     0.89728213     0.25956106    -2.68275100
H    -0.65831563     0.42414158    -2.68998238
O    -3.81367637    -0.66407384    -0.86520967
H    -3.91114875    -1.55061267    -1.21718465
H    -4.68194190    -0.45618910    -0.51558532
O    -3.67156917     2.85882774    -3.64241187
Cl    -4.65873943     1.64553066    -4.31662792
H    -3.11266109     2.27995673    -3.11032492
O     2.92101508     2.68840766     4.66803837
Cl     3.42551113     1.18517731     5.29008893
H     1.96946624     2.74573772     4.81587327
O     1.37010302    -0.99827993     2.31830752
Cl     2.56364136    -2.17110321     2.63629432
H     0.81626960    -1.28177671     1.58109369
O     0.01738607     2.56876602     5.27237725
Cl    -0.71864213     3.93074885     4.56214765
H    -0.08847405     1.79472381     4.70647940
C     5.02735186    -0.43437672     0.11666825
C     5.00400652     0.18793513     1.35880580
C     4.02205856     1.06262459     1.78352407
C     2.96338018     1.31104044     0.90353507
C     3.01270085     0.77443305    -0.38274470
C     4.03604253    -0.07316214    -0.79110232
H     5.82707093    -0.09025330     2.00379505
H     4.06211740     1.53650055     2.75811754
C    -1.47138348     3.26882206     0.81349947
C    -1.56812912     3.94696287    -0.40413874
C    -2.56007208     3.19626581     1.68719843
C    -2.80436645     4.40420170    -0.84268116
H    -0.71261190     4.14511086    -1.02959351
C    -3.80919862     3.62928909     1.27339167
C    -3.87768233     4.19612961     0.00923807
H    -3.00050049     4.76368263    -1.84449955
H    -4.69143100     3.45561329     1.87530012
Cl     6.35179472    -1.48890421    -0.25620117
Cl    -5.51212661     4.54690717    -0.48892544
N     1.96238810     2.25994981     1.16261219
H     2.02570081     2.59631469     2.11055993
C     0.67162494     2.22631388     0.65901178
O     0.41782923     1.57793228    -0.32811708
N    -0.26950618     2.87705097     1.43300591
H    -0.20432014     3.27829703     2.35528593
H    -2.43986817     2.70960884     2.64956014
H     2.33748867     1.21326400    -1.09932057
Cl     4.19683052    -0.81367020    -2.35031510
