70
 energy: -143.150295781949 gnorm: 0.106260183434 xtb: 6.6.1 (8d0f1dd)
O     0.78464121    -0.92594908     2.70035999
H     0.46299072    -0.40011503     1.96593673
H     0.97276106    -1.84760387     2.51461271
O    -1.85727524    -0.49170285    -2.40469135
H    -1.02418422    -0.01781036    -2.37778302
H    -2.45018342    -0.05090230    -1.79355075
O     0.05539189    -3.54781776     2.40409387
H     0.99783078    -3.60713209     2.23787304
H    -0.37250699    -4.29550537     1.98313764
O    -0.35412045     0.10838665     0.42269994
H     0.37924942     0.46312892    -0.08293385
H    -0.38291836    -0.82897038     0.22302288
O    -4.18033759     0.18574912    -0.57497687
H    -4.02033655    -0.32947025     0.21766924
H    -5.09346539     0.47820741    -0.57300761
O     1.06630716    -2.16246063    -0.74482723
H     1.35910253    -1.46992403    -1.33980781
H     0.22603713    -2.42970118    -1.12148122
O    -2.26661199    -2.07067519     1.00405737
H    -1.66061212    -2.66798016     1.44601707
H    -2.15354275    -1.23342323     1.45744802
O     2.17251449     1.05549213     3.93504391
H     2.18606787     1.03384225     4.89352488
H     1.74912093     0.21832755     3.73697858
O     0.78590697     0.35606092    -2.53327752
H     0.85461905     1.25513410    -2.20726421
H     0.87469719     0.44980991    -3.48336448
O    -1.32471241    -3.08201438    -1.47187012
H    -1.77325121    -2.28292588    -1.75402051
H    -1.81140063    -3.50319039    -0.76117775
O    -2.44903986     1.80484390    -4.22461194
Cl    -3.85831899     2.52391548    -3.59371525
H    -2.48182225     0.87093709    -3.98517553
O     0.50169051     3.13615337     3.67984430
Cl    -0.50922739     3.47468177     5.00822985
H     1.21781434     2.64432169     4.09919541
O     2.37583424    -2.81852423     1.31038934
Cl     3.84334070    -3.66057581     1.11407904
H     1.99120187    -2.65062316     0.44179663
O    -3.78021659     0.71963376     2.14160511
Cl    -2.92852560     1.06070283     3.57668531
H    -3.30108409     1.09973335     1.39558606
C     5.35845023    -0.47053256    -0.23523562
C     5.02137179    -0.28554557     1.10000991
C     3.97654549     0.54637316     1.45488775
C     3.19546727     1.23601121     0.52150295
C     3.50762615     0.98312161    -0.81397424
C     4.51539296     0.10014984    -1.18433707
H     5.51646730    -0.89330689     1.84589300
H     3.74889805     0.63708398     2.51127014
C    -1.07075919     3.66913094     0.54577025
C    -1.59918092     3.92325725    -0.72232591
C    -2.00438393     3.74346315     1.58340063
C    -2.95309779     4.16889925    -0.91269058
H    -0.89149233     3.93852950    -1.53553540
C    -3.33906490     4.07534475     1.41743766
C    -3.84450043     4.28308407     0.14250163
H    -3.18228373     4.34034434    -1.95644132
H    -3.98758065     3.99016364     2.27939043
Cl     6.74001909    -1.44511508    -0.61820439
Cl    -5.56266352     4.37636507    -0.14356522
N     2.18265453     2.10325508     0.95926267
H     2.25435931     2.29238413     1.94660426
C     1.19041070     2.69934113     0.19706327
O     1.12376404     2.66406438    -1.00856858
N     0.25387354     3.39571856     0.93612359
H     0.28423759     3.34953028     1.94249964
H    -1.66892344     3.40246185     2.55736595
H     2.92920523     1.35889751    -1.64233815
Cl     4.53726498    -0.26785282    -2.87828072
