70
 energy: -143.137896931246 gnorm: 0.094371259833 xtb: 6.6.1 (8d0f1dd)
O     0.13262499    -0.60556616     2.06035885
H    -0.75522498    -0.35371125     1.80030203
H     0.46654979    -0.74961593     1.17318210
O    -1.92151383    -0.42785857    -2.25675032
H    -1.56091617    -1.22974082    -1.87426765
H    -2.82934592    -0.63540560    -2.48501155
O    -0.08679347    -3.26143713     3.50692395
H     0.11993987    -2.67050058     2.78070502
H     0.18098973    -4.14283257     3.24089273
O    -1.91225951     0.20880061     0.52283972
H    -1.28415292     0.57097421    -0.10457671
H    -2.49659067    -0.38553035     0.04884999
O    -4.30745898     0.65284972    -0.89769241
H    -5.18532127     0.45121844    -0.56899526
H    -4.18255533     1.57578532    -0.66981732
O     0.89344105    -1.60634288    -0.39365424
H     0.97692326    -0.88319944    -1.01769933
H     0.23029309    -2.24017851    -0.67262848
O    -2.45100490    -2.92689994     1.88585487
H    -2.00740558    -3.15708600     2.70412834
H    -3.40544896    -2.83604806     1.89685721
O     0.39403200    -0.60297159     4.96366918
H     0.40189605    -0.76456981     4.01859651
H     0.93353413    -1.28216312     5.37229227
O     0.82219780     0.34983151    -3.31798136
H     0.28989773     0.84915844    -3.93980758
H     1.26836019     1.02669395    -2.80599096
O    -1.38201054    -3.09111563    -0.77749017
H    -1.41088868    -3.98257985    -1.12933663
H    -1.92150958    -3.03140409     0.01289810
O    -1.67984013     1.44508078    -4.17914787
Cl    -3.32916547     1.76429300    -4.46020247
H    -1.63420454     0.96069063    -3.34615928
O     1.52398070     2.00053110     4.38732689
Cl     0.53436066     3.38321811     4.28735956
H     0.95541636     1.25011653     4.59756405
O     2.25702625    -3.15395150     1.38667194
Cl     3.53195384    -3.83939607     0.48895863
H     1.76426122    -2.59844432     0.77089558
O    -3.20343598     1.26897099     3.79430765
Cl    -1.97757716     0.72595021     4.84481201
H    -2.84077135     1.61794387     2.97133720
C     5.22775010    -0.17444864    -0.36642871
C     4.92974192    -0.18429908     0.99070680
C     3.79080222     0.49465150     1.37997727
C     2.95854309     1.24469843     0.54232260
C     3.32494613     1.31878864    -0.80123802
C     4.48632233     0.66363360    -1.19414881
H     5.49403806    -0.74304320     1.72569650
H     3.49966069     0.63361035     2.41531423
C    -1.33149956     3.63455626     0.49286610
C    -1.74113976     3.40946544    -0.82372293
C    -2.21327188     4.33720364     1.31907523
C    -2.97677475     3.79676312    -1.32659104
H    -0.99300448     2.96135941    -1.45764774
C    -3.46178424     4.70662217     0.84599042
C    -3.85085800     4.42865873    -0.45610043
H    -3.20916741     3.57312527    -2.35970044
H    -4.16516228     5.24799697     1.46483109
Cl     6.69287310    -0.91373128    -0.92507390
Cl    -5.36864539     5.12245538    -0.96363135
N     1.85654514     1.83996796     1.17540229
H     2.02581741     1.92687761     2.16512367
C     0.71499776     2.22354985     0.48943663
O     0.46120791     1.73016575    -0.58359518
N    -0.11542761     3.18133510     1.03833985
H     0.16336714     3.64934856     1.88632865
H    -1.93000748     4.54141984     2.34644135
H     2.86548994     2.02758829    -1.47091564
Cl     4.90232491     0.98909136    -2.84532068
