%nproc=8
%mem=4000MB
#opt=(noeigen,calcfc,ts,recalc=5,maxcyc=200) freq B3LYP/SVP em=GD3BJ

ts-3348.gjf

0 2
Cl  -1.92101208745776  3.10768393158328  -3.41379646494559
O  0.91886979271528  1.37958802074389  -4.38053763009913
H  0.32136776417274  2.13888608525262  -4.53412787396080
H  -0.53193004261010  1.12612579059568  -2.67115988302600
C  3.27542314133512  -0.23234702796076  -2.34375513880134
C  3.03034835129756  -0.70035339672904  -1.03370286265301
C  4.47356526283797  -0.44899602682419  -3.01407524901402
C  3.86572925576457  -1.67603531479619  -0.52360933470934
H  2.09173895785144  -0.50564654535922  -0.58030912996026
C  5.41168787628950  -1.15324382381525  -2.29127197817850
C  5.24077059134089  -1.61856859754225  -1.02835571596528
H  3.52184425189362  -2.30617314234181  0.27994758816518
H  6.24582695491707  -1.20993379094735  -2.98449598635025
Cl  6.74425585400668  -2.35048858379696  -0.26353379075462
C  1.24354054556092  1.04364680935465  -3.17484694151577
O  0.24829725263653  1.10333392259868  -2.23780817525264
N  2.46255376290768  0.68549917363190  -3.05020373821502
H  4.67709401557460  0.01086676871249  -3.99434544246991

