%nproc=8
%mem=4000MB
#opt=(noeigen,calcfc,ts,recalc=5,maxcyc=200) freq B3LYP/SVP em=GD3BJ

ts-3378.gjf

0 2
Cl  -1.61534564476998  2.56388586652978  -3.85071534715779
O  0.73664777465897  -0.02229413320802  -4.68292019201690
H  -1.61050663637233  1.62496127398699  -4.71953627391174
H  1.54604903350647  -0.31731120717415  -1.72639156466028
C  3.62418025988180  -0.52874841954279  -2.80797907698829
C  3.65563037332822  -0.72249383390147  -1.35184540784306
C  4.96067517000121  -0.40643510351307  -3.28223120901053
C  4.79749868585691  -1.25664944877821  -0.83793056950824
H  2.77150426987226  -0.43197717100387  -0.86037197931024
C  6.02553797525334  -1.15451088771207  -2.84509252990560
C  6.01604549363657  -1.39755369304633  -1.47427688914839
H  4.89354244879693  -1.49398706710844  0.20123472874377
H  6.98615747048762  -1.18625830384315  -3.34863488845619
Cl  7.08362159319063  -2.56423929747356  -0.49231107889540
C  1.42753001131759  0.01262668201569  -3.66792251845440
O  0.83560440354439  0.01869960789932  -2.43998174114820
N  2.72282714721511  -0.20879181498194  -3.77334088070923
H  5.13904208471901  0.15611646964512  -4.21915336373890

