70
 energy: -143.138227959805 gnorm: 0.113881215203 xtb: 6.6.1 (8d0f1dd)
O     1.80574192    -3.88194223    -0.43219620
H     1.77295430    -4.30647501     0.42689339
H     2.04293240    -4.56355560    -1.06345095
O    -1.71178921     1.19315602    -1.92688711
H    -1.49577207     1.80796474    -1.22354820
H    -2.20114083     0.45620642    -1.55705153
O    -0.47456735     0.70694811     3.28812197
H    -0.98508415     0.04181462     2.82303203
H     0.27228475     0.30584412     3.73607944
O    -2.03106055    -1.05122486     1.66241547
H    -2.63414188    -0.78792308     0.96506042
H    -1.30964280    -1.40542044     1.13950021
O     0.23571135    -2.32858580    -3.54694330
H     1.14062748    -2.42420921    -3.24474774
H     0.07911541    -1.38770151    -3.64468064
O    -1.82670592    -4.10653620    -3.53772164
H    -1.80210065    -3.90536647    -4.47487868
H    -1.17264560    -3.52767445    -3.14216682
O     0.18696263    -1.75075173    -0.38043875
H    -0.10487271    -1.60084955    -1.28138209
H     0.84921599    -2.44140657    -0.31916101
O    -3.80280214    -2.95494331    -2.23940413
H    -3.72227105    -3.65655384    -1.59087072
H    -3.17776176    -3.11612735    -2.94840395
O     0.14132175     0.26486509    -3.66523483
H     0.51190101     1.03980356    -4.09123949
H    -0.43777386     0.62262639    -2.98996234
O    -3.58755459    -0.49842513    -0.76127041
H    -3.80108045    -1.28979463    -1.25874338
H    -4.37267653    -0.06874962    -0.41732158
O    -2.97110113     2.22969591    -4.00056957
Cl    -4.66949752     2.20866194    -4.12772900
H    -2.90196498     1.87988653    -3.10422142
O     2.44416808     1.80669381     4.25612215
Cl     3.52766098     1.35360393     5.48978229
H     1.61576316     2.13820234     4.62277524
O     1.32435095    -1.09663959     2.27231495
Cl     2.90761552    -1.72102474     2.20463706
H     0.87767095    -1.32606587     1.44864834
O    -0.05356019     2.81896083     4.75137618
Cl    -0.71985078     4.38569670     4.70081544
H    -0.62984726     2.23146171     4.24806111
C     5.14289240    -0.32553692     0.17175391
C     5.16804195     0.47411974     1.30781694
C     4.05013134     1.24992523     1.54883687
C     2.89771387     1.20853775     0.75693290
C     2.85479674     0.38416987    -0.36710944
C     3.97716527    -0.40671100    -0.58435999
H     5.95826314     0.37333261     2.04009237
H     3.96591997     1.86484667     2.43809249
C    -1.49865448     3.35699079     1.01938141
C    -1.78332496     4.03362139    -0.16932010
C    -2.62782079     3.07854828     1.79482350
C    -3.08829727     4.35769459    -0.51816594
H    -1.04089710     4.13716418    -0.94420449
C    -3.93002960     3.44998501     1.50267740
C    -4.17298273     4.11499069     0.30985561
H    -3.22277447     4.84717371    -1.47402226
H    -4.71328543     3.19978536     2.20602762
Cl     6.36750236    -1.45219001    -0.31424170
Cl    -5.73857432     4.45618271    -0.37944182
N     1.95163426     2.19412480     1.07800380
H     2.08115316     2.48854278     2.03314653
C     0.76297039     2.45887461     0.41633925
O     0.48793368     2.17231016    -0.72448061
N    -0.18628919     2.93257855     1.30107893
H     0.02065712     2.78544838     2.27646296
H    -2.53082046     2.54787174     2.73631032
H     2.10562524     0.43974186    -1.14016751
Cl     3.62385173    -1.68200235    -1.70424870
