%nproc=8
%mem=4000MB
#opt=(noeigen,calcfc,ts,recalc=5,maxcyc=200) freq B3LYP/SVP em=GD3BJ

ts-193.gjf

0 1
Cl  0.28315237687119  1.18387470904988  -0.62151896036338
C  4.68935421468503  1.58825716305013  -2.74166320582664
C  3.55499493319491  0.79571932525626  -2.89767619573185
C  2.27562823258138  1.25934666771587  -3.13044623411585
C  2.07943255851996  2.64579296766970  -3.31926223984917
C  3.24447598816605  3.46584832240102  -3.13633951834865
C  4.46367599749126  2.95918842329505  -2.80843705427697
H  3.65756049817891  -0.24722437310596  -2.74408243659342
H  1.39583898970647  0.58250016244840  -3.19379500799333
C  -2.47416374918657  2.08207733404843  -2.66737720356430
C  -2.95775376032078  1.38321952268873  -3.80744075645396
C  -3.32087656071966  2.15965851153797  -1.51583977974556
C  -4.29883655137995  1.03394318226832  -3.84938960817934
H  -2.37728860642406  1.08211652203189  -4.68435529434066
C  -4.56293822207654  1.48108831368055  -1.54610151246214
C  -5.07860972992344  1.05689827364181  -2.73844574005884
H  -4.73819104142205  0.74133487874355  -4.80202549279291
H  -5.08854225613768  1.29741227320629  -0.62432186467515
Cl  6.19614591780251  0.69797927931382  -2.53979895001819
Cl  -6.71875289575100  0.71664911694482  -2.79805031998694
N  0.88578888137090  3.20393800864719  -3.30523239620790
C  -0.25981066934992  2.68357529441632  -3.65066850420165
O  -0.49683344066511  2.18686206506009  -4.74653727307993
N  -1.27886446763869  2.75483554242200  -2.63267947585120
H  -0.88631509298641  2.96315384779145  -1.71311122059453
H  -3.03216633876224  2.55202253265525  -0.57643773855783
H  3.10521653037969  4.49012263664534  -3.26570322457913
Cl  5.83735703499109  4.05394933999260  -2.36311920492888

