%nproc=8
%mem=4000MB
#opt=(noeigen,calcfc,ts,recalc=5,maxcyc=200) freq B3LYP/SVP em=GD3BJ

ts-203.gjf

0 1
Cl  0.80107674345729  0.79825943813854  -0.59854786755970
C  4.61586339059586  1.51769894886735  -2.82321981562195
C  3.57789510264695  0.63095685172055  -3.08965232675286
C  2.33059768190484  1.18502564833322  -3.38754792336792
C  2.15639128655391  2.60047087800482  -3.40659757047892
C  3.27204823958853  3.46098594726815  -3.11853144192454
C  4.43245803429129  2.89534379702874  -2.72002699145358
H  3.75431044085421  -0.41784137227899  -3.39477980821056
H  1.45812813505140  0.57609868493276  -3.46225352005957
C  -2.39370928481721  2.29997269003452  -2.72190818917093
C  -2.95288517244049  1.55187589558997  -3.79484957817802
C  -3.19832220701827  2.23629148347230  -1.60425619354204
C  -4.17543037255519  0.91264579226607  -3.77032433240188
H  -2.31264137919995  1.52736945387734  -4.70602078279755
C  -4.52356832786088  1.70007396714450  -1.54420255576970
C  -5.04031431712170  1.10025401048839  -2.70457619531990
H  -4.55426888172428  0.29360944558913  -4.59741160761743
H  -4.99741012593356  1.82548799454053  -0.58766063157205
Cl  6.22532937240810  0.83742514902459  -2.62285728020584
Cl  -6.62230132043773  0.51613172012285  -2.91957540546031
N  0.97213150896109  3.19159127190529  -3.52830861502705
C  -0.28896705176160  2.76787510160201  -3.82764237452100
O  -0.62503058038191  2.57640450547059  -4.96515049736658
N  -1.14225013640201  2.76072469105056  -2.74867504883962
H  -0.74028359769278  2.93999809366852  -1.83125116774264
H  -2.95007992350203  2.80242361189394  -0.69968582965281
H  3.02094203192657  4.53039791880240  -2.97551435534767
Cl  5.52566664289048  3.95022784437462  -1.97122103790220

