%nproc=8
%mem=4000MB
#opt=(noeigen,calcfc,ts,recalc=5,maxcyc=200) freq B3LYP/SVP em=GD3BJ

ts-233.gjf

0 1
Cl  1.15866644369279  1.92846733527952  -1.49057092862675
C  4.83707537011883  1.45617114938335  -3.06154686210931
C  4.21326308451783  1.35695761782821  -4.35392959669403
C  3.05959120113277  2.02489371141469  -4.69103001584054
C  2.28305601041784  2.66461330089402  -3.69052439437176
C  2.86849891419620  2.61946139557860  -2.36292945826395
C  4.03063146437596  1.88378045227777  -1.97314065954037
H  4.73389024896047  0.88392945057622  -5.21889805816267
H  2.52718452865912  1.82082815812665  -5.58462894527823
C  -2.57251094877499  2.20229616382198  -3.57436744313720
C  -3.25661619846982  1.35059999439592  -4.48953946673113
C  -3.20388956994501  2.60486589035168  -2.44802914162110
C  -4.40442081156578  0.74354968348047  -3.98593929241923
H  -2.91218421597619  1.15947740540153  -5.52759685258407
C  -4.49514788048435  2.24982255486166  -2.06745037389546
C  -5.06065449491866  1.20288615400483  -2.79013776380907
H  -4.75674932621121  -0.21537857397518  -4.41085793796235
H  -4.81196518671252  2.62125102261535  -1.10356298752184
Cl  6.55959452658135  0.98554533233470  -2.97279845023830
Cl  -6.38570514065767  0.34006237440438  -2.19013596261929
N  1.06510090930632  3.10788792772860  -3.74606940035746
C  -0.19402977278478  3.16850167239508  -4.04020156395585
O  -0.63583367521226  3.90997447841863  -4.91680691818477
N  -1.11677471252119  2.23182934565795  -3.41857853376769
H  -0.81836424815059  1.87581438145860  -2.51308699147143
H  -2.71657040786976  3.22469379058889  -1.69664113851034
H  2.77473626932936  3.45069608445519  -1.60693402736855
Cl  4.66457581553069  2.56333385549710  -0.42012084699181

