%nproc=8
%mem=4000MB
#opt=(noeigen,calcfc,ts,recalc=5,maxcyc=200) freq B3LYP/SVP em=GD3BJ

ts-253.gjf

0 1
Cl  1.29365791435672  2.52953086947545  -1.10731928470971
C  4.62495668230462  1.53737171315446  -3.28417001308108
C  4.51815569110512  1.95979985457592  -4.57663676644424
C  3.19652363077879  2.26685044286312  -5.00487752609405
C  2.03275816644355  2.38411009328926  -4.05967313990926
C  2.45071234348488  2.47244165937473  -2.49712053523917
C  3.57682022018230  1.59832191660995  -2.35228183005110
H  5.41743786009516  1.87385647017040  -5.13780247934128
H  3.07158789800249  2.77612837413996  -5.96082133911180
C  -2.45473926852633  2.21739524331983  -3.73892516714082
C  -3.51517630460662  2.05454831504724  -4.60753206332918
C  -2.58316469389515  2.07478223647759  -2.37923620084661
C  -4.48191666533306  1.26533082977362  -4.12938521557572
H  -3.29014717719137  2.12532131764796  -5.69025864507252
C  -3.76083923762468  1.63406775311480  -1.77235826531021
C  -4.64993679469127  1.12716155023698  -2.71203782439848
H  -5.36935110912933  1.06546037502186  -4.69954567979905
H  -3.99472187069293  1.66917722223352  -0.72839218908377
Cl  6.07491289129550  1.06391494985258  -2.40050978381360
Cl  -6.18636434304727  0.73393494729958  -2.25615371496733
N  0.95399065288094  2.88690266571365  -4.43739789502729
C  -0.24179740291064  3.39028011161441  -4.35821703570103
O  -0.58035114276862  4.48892402573271  -4.68870500796699
N  -1.13945746843790  2.37952562961845  -4.16053564372619
H  -0.69166005392096  1.67090220772899  -3.57152161153421
H  -1.81294268432642  2.38364627393631  -1.70813326566138
H  2.77759375563424  3.48759470831489  -2.43798212007334
Cl  3.57840969616757  0.59995622218782  -0.99805355904679

