%nproc=8
%mem=4000MB
#opt=(noeigen,calcfc,ts,recalc=5,maxcyc=200) freq B3LYP/SVP em=GD3BJ

ts-853.gjf

0 2
C  4.09470539151214  -1.95745435194387  -1.57493358562780
C  3.74011956901249  -1.33495378933632  -2.81261547751301
C  3.45284691912852  -0.02092356564252  -2.91926964571291
C  2.92278763733268  0.69534372940196  -1.83671864297645
C  3.45726668917902  0.17897695586905  -0.65686108245622
C  4.25575657465835  -0.97800230877407  -0.62863704258168
H  3.73952912493595  -1.87353502289663  -3.74448305544265
H  3.26483033938131  0.37458819797409  -3.93792240611380
C  -0.32785233586688  3.68014955091523  -0.75851640642777
C  -0.83806968589361  4.81692143212288  0.00310828632778
C  -1.37829860826471  2.87525085674207  -1.24396577382791
C  -2.20982172159497  5.00264476550580  0.39183670894431
H  -0.09295671563331  5.31622161395730  0.62640159663658
C  -2.71361292951384  3.18608655546161  -1.06971557604067
C  -3.19119450552344  4.19341204052773  -0.17665387610310
H  -2.37516255332732  5.61663947825960  1.29256739423474
H  -3.43510634263664  2.36968004037422  -1.20113094877084
Cl  4.37211048268298  -3.62614861973850  -1.66318779751521
Cl  -4.81172698992397  4.02780461055512  0.59733697467032
N  1.88378999441730  1.60773173228122  -1.63042976103497
C  2.04016308111876  2.83186896718876  -1.64132460815645
O  3.06936531210937  3.49466662875196  -2.03783016168956
N  1.03357249423057  3.57468743814373  -0.94559431992640
H  1.41480832478898  4.40775148982295  -0.53917144148929
H  -1.00194760916769  1.88050254080638  -1.27508136359984
H  3.60855444825198  0.94830146180177  0.11748693085598
Cl  5.16539760911383  -1.34568370370688  0.80105303911791

