%nproc=8
%mem=4000MB
#opt=(noeigen,calcfc,ts,recalc=5,maxcyc=200) freq B3LYP/SVP em=GD3BJ

ts-863.gjf

0 2
C  4.24664340912618  -1.97959294263228  -1.62349015846159
C  3.93424029452134  -1.28730603412672  -2.86932971090145
C  3.01112989803876  -0.29176226770034  -2.80079748367773
C  2.92223416108415  0.67189472155262  -1.74910359094003
C  3.69691782658060  0.17688635621094  -0.68477297650751
C  4.24861806890955  -1.14258174612898  -0.57645635901257
H  3.90496599251300  -1.94079443369523  -3.72178798355885
H  2.54028385663845  0.03572712611329  -3.72158952531414
C  -0.00042306413975  4.56820260315352  -0.64156261786314
C  -0.62642062200859  5.51089764970960  0.28387638408572
C  -0.87327265578154  3.64576965197933  -1.22143283461676
C  -1.98956711966768  5.32453081374936  0.65645565941591
H  -0.25244956664968  6.53646686196235  0.42796231522406
C  -1.99680054518327  3.26665003155051  -0.58919005123966
C  -2.56344671153236  4.08949980446148  0.40276878018293
H  -2.38821167932985  5.99573358207765  1.38150432842231
H  -2.41290370001135  2.30740536457609  -0.79565321775622
Cl  4.66042420287039  -3.59397170638511  -1.35304559622850
Cl  -4.39834836456483  3.80719122909095  0.61498418162467
N  2.18417897252595  1.90530229940777  -1.54596803131750
C  2.19736432655290  2.99906241045582  -2.14282174181508
O  2.68759508932030  3.73448161173802  -2.84759366094059
N  1.24141536433050  4.34641795021830  -1.11848576910262
H  1.97919153130373  5.01700717131905  -0.90922076097489
H  -0.37699131917918  3.02298569076405  -1.98133843864471
H  3.72497171742833  0.80677961437942  0.19092819210100
Cl  4.78224499001192  -1.44254986921536  1.19321168981059

