70
 energy: -143.148702028277 gnorm: 0.101966931143 xtb: 6.6.1 (8d0f1dd)
O     0.24767064    -0.97424475     2.93655140
H    -0.59006439    -1.43564798     3.00470637
H     0.66104487    -1.36215772     2.16325717
O    -4.04121590    -2.02835835    -1.50210873
H    -3.20783788    -2.36010642    -1.16334172
H    -4.53763054    -2.83438427    -1.65453182
O     0.85527102    -4.57127354    -0.30674922
H     1.33657500    -4.12228163     0.39045330
H     1.46322311    -4.58864728    -1.04798520
O    -1.25528668     0.11230439    -0.86429244
H    -0.53731085     0.72679996    -0.70228973
H    -0.74060432    -0.61834666    -1.21155254
O    -3.63987902     0.75617797     0.38639102
H    -4.23453541     0.94597198    -0.34141473
H    -2.73515302     0.83673199     0.07927537
O     1.07431267    -1.20446979    -2.04668586
H     0.84559377    -0.52105631    -2.67911899
H     0.73674375    -1.97926208    -2.49954743
O    -1.42068079    -3.08127508    -0.61883246
H    -1.09102528    -3.86842470    -0.18172817
H    -0.62657808    -2.54425388    -0.60018570
O     1.84505773     0.91277359     4.21791814
H     1.61742964     0.40550417     4.99907200
H     1.35993251     0.61288834     3.44716599
O    -0.76259721     0.11434785    -3.80419331
H    -1.21223250     0.09903201    -2.95747487
H    -0.98647214     0.89333985    -4.31643280
O     0.03853629    -3.73167321    -3.03596983
H     0.17516885    -4.34610148    -3.75925939
H    -0.70646890    -3.98503137    -2.48814213
O    -3.81387068     0.69083979    -2.33916579
Cl    -4.13055155     0.99793590    -3.98433065
H    -3.83878583    -0.26812307    -2.23740197
O     1.33952455     3.75863987     3.93450837
Cl     0.19318452     4.20739124     5.11166231
H     1.69181832     2.93390603     4.28988183
O     1.30334650    -1.83032066     0.42527229
Cl     2.83705706    -2.38900859     0.91185581
H     1.37898508    -1.41225322    -0.44080192
O    -3.54289912     0.22102763     2.98299002
Cl    -2.46721692     1.40236318     3.57334158
H    -3.75905437     0.42790716     2.06589360
C     5.43526109    -0.50077592     0.49358088
C     5.43901376     0.16539391     1.71297679
C     4.47881975     1.12197062     1.98256449
C     3.47782865     1.45941430     1.06548237
C     3.54814179     0.83743772    -0.18075071
C     4.50776888    -0.12470764    -0.47365665
H     6.20575534    -0.06071581     2.44223446
H     4.55084713     1.72277552     2.88247621
C    -0.87824535     3.71845153     0.84191981
C    -1.21582203     3.82577354    -0.50952444
C    -1.82244010     4.11067552     1.79507976
C    -2.41353218     4.41571694    -0.89309556
H    -0.50916054     3.65938696    -1.30658850
C    -3.05771555     4.58057736     1.37993011
C    -3.38024776     4.75141466     0.04169612
H    -2.52109800     4.71671323    -1.92710043
H    -3.83073969     4.76939731     2.11312299
Cl     6.64726463    -1.67423172     0.09450995
Cl    -4.95065803     5.25099923    -0.53000908
N     2.48565985     2.42320039     1.30265874
H     2.50745637     2.89183928     2.19465498
C     1.36118294     2.64285622     0.52283993
O     1.09850885     2.17912459    -0.56122174
N     0.43370209     3.38478007     1.22823476
H     0.64025347     3.71179966     2.15895643
H    -1.56592752     4.09939094     2.84935584
H     2.86369827     1.02981132    -0.99099422
Cl     4.27650808    -0.87584389    -2.01886286
