70
 energy: -143.110125852476 gnorm: 0.093849504525 xtb: 6.6.1 (8d0f1dd)
O     3.59241175    -3.04450337    -3.52791079
H     3.06007587    -2.56907851    -2.88765480
H     4.48160138    -2.70472141    -3.41289467
O    -1.30207767     0.77180365    -5.28117582
H    -0.57687403     0.50521731    -5.84893475
H    -0.99408889     1.52576263    -4.77518488
O    -1.65449244     3.33507022     3.88529946
H    -2.03805680     4.20335962     3.75005706
H    -1.72287467     3.08322311     4.80792358
O     0.11797558     1.45444599     4.85982594
H     0.98038495     1.67770012     5.21443366
H     0.19268089     1.60224514     3.91541449
O    -2.99077673    -0.53278515    -2.10194486
H    -3.46622914    -0.03315930    -1.43586813
H    -3.54370636    -0.88997400    -2.79909839
O    -1.23125403    -2.18855440    -4.04363709
H    -1.50652397    -1.27845226    -4.16724344
H    -0.98848587    -2.60832992    -4.87079584
O     0.07691222    -4.03333688    -1.63579046
H     0.48832636    -3.19734166    -1.86203775
H    -0.27179940    -4.41154502    -2.44492419
O    -1.21706269    -2.47801948     0.28069255
H    -1.87698264    -2.11854413    -0.31480834
H    -0.58685030    -2.96058308    -0.25717475
O     1.08747433     1.04912642    -4.15158024
H     1.96811807     1.42441110    -4.09711366
H     1.00426323     0.28684158    -3.57596271
O     0.93126032    -1.49545603    -2.62839094
H     0.73619559    -0.68839071    -2.14887697
H     0.11102010    -1.73268412    -3.06458713
O    -3.41594733     2.56734101    -5.48060959
Cl    -3.89928465     3.11530654    -3.94201248
H    -2.72979059     1.89680940    -5.37979942
O     0.64084279     2.97363658     2.51600432
Cl     0.76122205     3.53107855     0.91103331
H    -0.14960155     3.30170509     2.96115136
O    -1.20673811    -0.76610317     4.51930114
Cl    -2.66758142    -0.93967997     5.37777171
H    -0.79079419     0.04968384     4.82272877
O     3.48846186     2.28565514     3.99735585
Cl     3.45236854     3.02545347     5.53116045
H     2.65418173     2.59770346     3.62696338
C     5.16529594    -0.36200874     0.02543393
C     4.87135012    -1.21365288     1.08327163
C     3.59723495    -1.18798150     1.61774372
C     2.57071133    -0.39994819     1.08657180
C     2.86618976     0.49927198     0.06236914
C     4.15541958     0.46573763    -0.45644046
H     5.64714762    -1.76507763     1.59795976
H     3.35422823    -1.79122076     2.48552574
C    -2.09812417     0.68299541     1.28055229
C    -2.23696800     1.37061005     0.07233625
C    -3.00438959     0.96734385     2.30606978
C    -3.26353532     2.28221385    -0.13934179
H    -1.52319016     1.06553120    -0.67587102
C    -4.00894873     1.89944052     2.10329136
C    -4.13769732     2.57139707     0.89665109
H    -3.21207546     2.89197768    -1.03202045
H    -4.71104066     2.07847787     2.90691043
Cl     6.73122935    -0.49513496    -0.70623432
Cl    -5.45980495     3.68791460     0.67747090
N     1.29483662    -0.32513600     1.66629745
H     1.11349873    -0.90101394     2.47328934
C     0.15873917    -0.13093138     0.89663431
O     0.16472313     0.04357071    -0.29866797
N    -1.03823410    -0.19260303     1.58344218
H    -1.06462095    -0.63522071     2.48856172
H    -2.95762262     0.57030399     3.31482955
H     2.18439498     1.26621030    -0.26767091
Cl     4.54810667     1.73399886    -1.57118685
