%nproc=8
%mem=4000MB
#opt=(noeigen,calcfc,ts,recalc=5,maxcyc=200) freq B3LYP/SVP em=GD3BJ

ts-3306.gjf

0 2
O  -3.52593875905737  2.59493925626666  -2.86817691583055
H  -3.60203505727696  2.09837146491664  -3.68553531677141
O  0.51483418642478  1.09902351002935  -6.12038931875709
Cl  -0.40179363888955  1.71629860317850  -4.27150534832651
C  -1.91990040011505  4.33496024862182  -2.92237098769004
C  -2.25321108750388  2.97207561239500  -2.32597834620258
C  -0.99909071213412  2.01910022546479  -2.25824451962223
C  0.14663472494944  2.71210334567506  -1.45699599607275
C  0.09065634517953  4.17517586411113  -1.57491223544441
C  -0.85995608252043  4.94540928168935  -2.37447041165617
H  -2.51858601787466  3.09883299494576  -1.26673250724904
H  -1.20686342084602  0.98833962020337  -1.91254868273303
C  3.36249910435172  0.39009982747622  0.84282641562959
C  3.43964785000256  -0.20871767839060  2.09956747163211
C  3.97604558916467  -0.44322635665145  -0.05515933754512
C  4.06199113064253  -1.48093094849030  2.23286264777913
H  3.42273483715024  0.41645198731091  2.96461539841627
C  4.06637958984475  -1.90977160158537  -0.03549675215073
C  4.26025244826970  -2.44089850036064  1.20982142105487
H  4.36902733802143  -1.64679754490261  3.24866763234455
H  4.32133072421985  -2.48731834891088  -0.93097303848411
Cl  -3.00479274574447  5.02888030251719  -3.89726818226702
Cl  5.21882252441061  -3.83554903044709  1.79338614823088
N  1.03791690445565  2.15017460171724  -0.82432590713049
C  2.47076754726947  2.44374217352727  -0.09562201251245
O  2.93845003136850  3.49728173399688  -0.49925424764626
N  2.98175507900039  1.64237885090906  0.71276836976421
H  -0.06771006734162  0.33601620505922  -6.35721212212546
H  4.26572536505043  -0.05167324197830  -1.00882535436824
H  0.75002729045745  4.88459132450281  -1.11553099101280
Cl  -0.43186941226928  6.35433869092434  -3.21403622067187

