%nproc=8
%mem=4000MB
#opt=(noeigen,calcfc,ts,recalc=5,maxcyc=200) freq B3LYP/SVP em=GD3BJ

ts-3036.gjf

0 2
O  -1.50356470821116  5.81146764220896  0.07431174828050
H  -0.04047248979194  -0.63306840465140  -1.64650197577955
C  3.52674919095243  -0.13031302204168  3.54872041980731
C  3.22636168700144  -1.27634438564632  2.70557255206523
C  2.76415811377767  -0.94377404763386  1.41836796491001
C  2.54656415192370  0.30201160368700  0.85507934023812
C  3.09816086640627  1.36952598593591  1.61437795833864
C  3.71790310142487  1.10815811877521  2.89095839858476
H  3.36006124785572  -2.29475192490383  3.10031083745584
H  2.49969280243914  -1.74929407903895  0.67528252172334
C  -0.34528735174577  2.80696499691715  -1.80548893094612
C  -0.01097490267812  4.03304052278852  -2.37571468380380
C  -1.54177495364198  2.43238151526326  -1.09036905352768
C  -0.75971527119716  5.09570021681118  -2.03430234995910
H  0.67836279581405  4.12740374009536  -3.20376383260014
C  -2.25358524925345  3.48199910308519  -0.64623813920432
C  -1.72684597681640  5.02433381983536  -0.91716773331823
H  -0.35756499995650  6.10580481946199  -2.24622683660372
H  -3.10544363944903  3.47439786206481  0.12261140342211
Cl  4.28578789733843  -0.33180004150810  5.14586069558232
Cl  5.33327334389390  1.02006794384305  0.31085673318093
N  1.89287163533055  0.24094611150383  -0.38135372471170
C  1.01043445392073  0.80254633784462  -1.22687726929015
O  0.53079178451405  -0.18006133216105  -2.22318684551423
N  0.78862786108239  2.01092416089586  -1.50290134641128
H  -2.05228440685533  1.48105645918112  -1.11966538142014
H  3.15092199864254  2.37356760132756  1.22400793603822
Cl  5.02885791582123  2.20191362461180  3.35368271250368

