%nproc=8
%mem=4000MB
#opt=(noeigen,calcfc,ts,recalc=5,maxcyc=200) freq B3LYP/SVP em=GD3BJ

ts-3096.gjf

0 2
O  -0.81173959322961  5.39898787049273  -2.53366451012096
H  6.51751828682760  0.24460207470649  -0.54119204360701
C  2.78988852727244  0.87475319340890  3.24819675102621
C  1.93335868420860  -0.01907156234756  2.65134067174165
C  1.48234585239002  0.14891736301555  1.26186353051742
C  1.72682239101970  1.39186507291014  0.71983057244578
C  2.47157201419288  2.36851070699871  1.40297544255353
C  3.02007065031864  2.09590414279154  2.66355901932896
H  1.42862540280656  -0.84711704551393  3.14832305480559
H  0.99424218232312  -0.58249813244271  0.61055775756357
C  0.36491143655443  1.46804718545474  -2.29840054757215
C  -0.95712948744111  1.93352233990142  -3.01865117905779
C  0.67157645068557  2.36761183672041  -1.16407584466021
C  -1.22672704017801  3.23671043296694  -3.04349327029444
H  -1.60375240603454  1.16912956080945  -3.35614896755702
C  0.70533996602846  3.76682235937103  -1.53929955350735
C  -0.41676641464738  4.27154225284867  -2.33896448054848
H  -2.05593779621018  3.35588157986176  -3.63643499668226
H  1.48415299264988  4.26494702400293  -0.94636788938584
Cl  3.69056050308099  0.45639671584325  4.64169099999362
Cl  6.14904642770201  0.67283981611014  -1.76363463025691
N  1.98248263664695  1.72680110485736  -0.63325711135604
C  2.10469992445547  0.52135277675467  -1.43406292679104
O  2.98645822099039  -0.32527079847760  -1.12868655875621
N  1.02797053688449  0.39166051736009  -2.41280194760039
H  -0.14826501152951  2.06614549536329  -0.53724859263445
H  2.45146654493257  3.34971546631917  0.97015076740949
Cl  3.31445970323637  3.63173284042688  3.44217210274363

