70
 energy: -143.125367664010 gnorm: 0.102531258958 xtb: 6.6.1 (8d0f1dd)
O     0.18279637    -3.11060137    -0.28692898
H     0.99347328    -2.90819136    -0.75721735
H    -0.17425377    -3.75704211    -0.89845841
O    -2.36017296     0.32349434    -3.56940776
H    -2.57165524    -0.59598343    -3.39860183
H    -1.49235093     0.41990972    -3.17326754
O    -0.20123110    -0.04824588     2.70552095
H    -0.79244486     0.12832191     3.43943425
H    -0.08651559    -1.00009586     2.69285843
O    -2.09852751     0.68985264     4.69137797
H    -2.32854915    -0.00737730     5.30806219
H    -2.81306246     1.32505559     4.76414802
O     1.76487199    -2.28926997    -2.43405815
H     1.18489514    -1.52846071    -2.36975169
H     2.04139977    -2.16336026    -3.34346303
O    -1.40773177    -4.69821595    -2.18985750
H    -1.60978017    -4.10636372    -2.91664864
H    -2.17077757    -5.26377422    -2.05853952
O    -0.45565016    -0.45221810    -1.42148209
H    -0.37520375     0.47911790    -1.63474032
H     0.20663884    -0.67385686    -0.76452843
O    -3.50947977    -2.48158970    -3.30685833
H    -4.42914063    -2.21893746    -3.37450367
H    -3.35026990    -2.39267669    -2.36553840
O     0.25787745     1.48898471    -3.13658987
H    -0.03378215     2.00473829    -3.89042773
H     0.74853683     1.94900427    -2.45323551
O    -3.19546879    -1.47721774    -0.64786289
H    -2.39013228    -0.97076611    -0.52837152
H    -3.88745217    -0.86427806    -0.90242575
O    -5.10093280     0.18611508    -2.02490984
Cl    -4.98329752     1.86517227    -1.76396712
H    -4.74274531     0.05646126    -2.91118182
O     2.82746856     3.71253288     3.27027128
Cl     3.04607100     2.13944150     3.88570702
H     1.94117697     4.02985646     3.48093706
O    -0.06456663    -2.60155030     2.18353730
Cl     1.05635018    -3.75425540     2.74565854
H    -0.27036204    -2.87527511     1.28170078
O     0.22881429     3.30371804     4.86090604
Cl    -1.03413246     4.34239768     5.33763548
H     0.08622857     2.47645095     5.33618127
C     5.25844476    -0.78951609     0.07301042
C     4.42910290    -1.36898053     1.02544703
C     3.19733447    -0.79823455     1.28368037
C     2.78976886     0.25935578     0.46375122
C     3.56449813     0.70263353    -0.60778733
C     4.88715560     0.29054169    -0.72249996
H     4.79886205    -2.21295196     1.59274351
H     2.63922284    -1.06921496     2.17310519
C    -1.39681076     2.90344112     0.08724100
C    -1.32391910     3.90079140    -0.88839044
C    -2.59327417     2.68599633     0.77647987
C    -2.46011571     4.68388800    -1.04803547
H    -0.40667243     4.10593417    -1.41653909
C    -3.74267435     3.41991085     0.53294129
C    -3.68518329     4.35688449    -0.48826275
H    -2.48159832     5.52502192    -1.72874644
H    -4.58626967     3.20035141     1.17398080
Cl     6.87820621    -1.40513375     0.02205715
Cl    -4.98327969     5.41984553    -0.96542046
N     1.52538332     0.82622600     0.68628739
H     1.15570081     0.47395647     1.55519231
C     0.88839944     1.86082079     0.01944458
O     1.30331457     2.46194473    -0.94270392
N    -0.31952826     2.16713874     0.61554306
H    -0.51191538     1.59498724     1.42268487
H    -2.67212119     1.94665293     1.56678269
H     3.12049054     1.46202456    -1.23080215
Cl     5.90971128     0.96636372    -1.94846639
