70
 energy: -143.156514308129 gnorm: 0.101061761861 xtb: 6.6.1 (8d0f1dd)
O    -0.54828190    -1.02849570    -0.04067483
H    -0.61028823    -0.45442063    -0.80613615
H    -1.41391641    -1.37186052     0.18761484
O    -3.11578194    -0.05192272    -0.85282634
H    -2.86640364    -0.95169257    -1.07091686
H    -3.01620570     0.41379326    -1.68501098
O     0.54554327    -1.69655347     2.42189581
H     1.47140777    -1.94208594     2.46464326
H     0.40437140    -1.68149577     1.47364367
O    -3.25459305    -0.63347939     1.89254613
H    -4.03783649    -0.52086146     2.43401257
H    -3.38575150    -0.24405738     1.02623994
O    -1.16384018    -2.86008830    -4.08508959
H    -1.46818524    -1.95114369    -4.10817555
H    -0.22172532    -2.87268934    -4.26285042
O     0.91996821    -2.56575322    -2.23982762
H     0.64288638    -1.68194802    -2.48772280
H     0.12459885    -3.04008736    -1.99136404
O    -2.72011455    -3.82900843     1.85047251
H    -2.99082173    -2.98499253     2.21611198
H    -1.78550461    -3.81608611     2.06419158
O    -0.91390144     0.47383301     2.78574270
H    -1.67969504     0.06743264     2.37618553
H    -0.23482841    -0.20224942     2.75244287
O    -0.22070798    -0.08958612    -2.92808959
H    -0.72614143     0.55152981    -3.43092753
H     0.45365635     0.47705519    -2.54929124
O    -2.30118748    -2.88945996    -0.96354683
H    -2.41705695    -3.59135561    -1.60639603
H    -2.74668717    -3.16996940    -0.16218375
O    -1.29126961     2.55371426    -3.65952626
Cl    -2.82145289     3.00796663    -3.06508860
H    -0.67726350     2.73687654    -2.93839208
O     0.92811120     2.62949487     3.43901250
Cl     1.50538560     3.50024259     4.78426985
H     0.21950164     2.02275211     3.68461953
O     2.29043930    -1.95343076     0.16976523
Cl     3.37404765    -3.23271274     0.47042183
H     1.80516218    -2.23544549    -0.61481105
O    -2.05006882     1.73824912     4.75513315
Cl    -2.13024566     0.92010088     6.24689920
H    -1.68109316     1.06989305     4.16543391
C     5.23754215    -0.43115979     0.00772799
C     4.72374354    -0.15697830     1.26929766
C     3.60006144     0.64517268     1.32914157
C     2.88682888     1.06795924     0.20244652
C     3.30339640     0.59639249    -1.04213848
C     4.53454619    -0.04321602    -1.12915969
H     5.27499190    -0.54580365     2.11533254
H     3.12830246     0.77940779     2.29631266
C    -1.56139387     3.29751527     0.29613788
C    -1.59552363     4.40034274    -0.56088260
C    -2.69011325     2.96431428     1.05034390
C    -2.76670742     5.12273560    -0.75100501
H    -0.69505493     4.58033261    -1.12579474
C    -3.86723962     3.66395941     0.84074326
C    -3.88485380     4.75036977    -0.02151231
H    -2.82087104     5.90292734    -1.49913755
H    -4.70939935     3.34496819     1.44057874
Cl     6.82942716    -1.08537005    -0.19992455
Cl    -5.35384380     5.68704822    -0.10707900
N     1.67891347     1.73440269     0.45998979
H     1.46661778     1.86035898     1.43713886
C     0.66747942     2.25948682    -0.32874464
O     0.62284047     2.34789141    -1.53266587
N    -0.42855726     2.48268025     0.48189811
H    -0.32149673     2.17164570     1.43460141
H    -2.72373585     2.11705611     1.72743112
H     2.62242482     0.82197538    -1.84672225
Cl     5.17016101    -0.55376134    -2.65908993
