%nproc=8
%mem=4000MB
#opt=(noeigen,calcfc,ts,recalc=5,maxcyc=200) freq B3LYP/SVP em=GD3BJ

ts-5664.gjf

0 2
Cl  -1.34515689553233  0.18567974879403  1.06965602262343
O  -6.39728303086475  -1.69821720412565  0.61731087726249
H  -2.41918008519042  -0.19931764777031  1.55967738822146
C  -4.72843400322372  -2.36973041467898  2.86972252438744
C  -3.64468855154687  -2.36786275197441  3.84330106246039
C  -5.40357303617304  -3.58494893725911  2.71452231433527
C  -3.40423004874404  -3.29020487615956  4.72360944925516
H  -3.09764674885091  -1.44372207291422  3.89790815518979
C  -4.98412428422370  -4.70676940863291  3.41794628122510
C  -4.07169034569528  -4.51333499712950  4.50130470685148
H  -2.72169142863177  -3.41116310212865  5.55304646314012
H  -5.23784104930670  -5.60426414445444  2.93172448916103
Cl  -3.45502261205230  -5.77368499701517  5.58338966829750
H  -6.54849599449958  -2.48379217676141  1.18874767902864
C  -5.28382718433569  -0.92751424430253  1.03799881199698
O  -4.87969901296080  0.00490525015068  0.39373909089817
N  -4.66794091362832  -1.26712091396141  2.12135817028284
H  -6.22771676739909  -3.66593794212608  2.01513167813733

