70
 energy: -143.142112400838 gnorm: 0.102432330582 xtb: 6.6.1 (8d0f1dd)
O    -0.20152531    -0.64991326    -0.25717763
H     0.45471302    -0.67691962    -0.95571892
H    -1.06634123    -0.71179209    -0.66657123
O    -2.82905872    -0.20823328    -0.85383573
H    -3.10924376    -1.07063478    -1.16544254
H    -2.81009739     0.35118809    -1.63231261
O     0.11890477    -1.90062311     2.28541861
H     0.94067839    -2.39217900     2.33440358
H     0.02928097    -1.49630468     1.42064549
O    -3.49602108    -0.60160404     1.86976756
H    -4.27595322    -0.31298126     1.39254463
H    -2.97664718    -1.09294953     1.23088664
O    -0.96665598    -3.40992944    -4.46285984
H    -0.77840626    -2.84138972    -5.21163472
H    -0.21698805    -3.98008479    -4.28325199
O     1.25117573    -2.52259095    -2.38933993
H     1.37480126    -1.69528223    -2.85797090
H     0.32935737    -2.70906282    -2.20274247
O    -2.50243969    -3.66527913     1.34593097
H    -2.82766897    -3.44112594     2.21961210
H    -1.54546558    -3.68867391     1.29123343
O    -1.14258796     0.59697550     2.93270474
H    -1.94322884     0.34705464     2.46810608
H    -0.64119168    -0.21726289     3.00309027
O     0.23392529    -0.03066547    -3.29603025
H    -0.43853260     0.46289910    -3.76882302
H     0.83402924     0.61304187    -2.91543346
O    -2.38947393    -2.79809159    -1.24772725
H    -2.11576677    -3.37299871    -1.96459860
H    -2.37650864    -3.34299632    -0.45889961
O    -1.66501642     2.51137563    -3.23609193
Cl    -3.24752095     3.12875942    -3.11087652
H    -1.15312363     2.70518645    -2.44174343
O     0.90024989     2.36436109     3.49348379
Cl     1.70878858     3.19383461     4.74224459
H     0.05178655     2.12298608     3.88391326
O     2.35877543    -2.13010154     0.04344782
Cl     3.36798447    -3.08552297     1.02824771
H     2.00201423    -2.61749504    -0.70871915
O    -1.68042508     2.19874018     5.00338141
Cl    -2.13410846     1.31666588     6.38803919
H    -2.10588374     1.88633943     4.19592938
C     5.19508478    -0.42016865    -0.12600386
C     4.85915963    -0.04938364     1.17029680
C     3.70861212     0.66478738     1.44577674
C     2.92561513     1.02970561     0.34548523
C     3.30806232     0.75793398    -0.96781976
C     4.48665774     0.06572150    -1.22111087
H     5.47739819    -0.42221996     1.97628013
H     3.51655357     1.06370079     2.43571470
C    -1.64876071     3.06409403     0.47795990
C    -1.57390647     4.19856045    -0.33398861
C    -2.87848121     2.79200547     1.08427057
C    -2.64676706     5.02247126    -0.64991703
H    -0.63634593     4.56665112    -0.71850853
C    -3.95286904     3.62025841     0.80364579
C    -3.83502455     4.75202681     0.01036427
H    -2.58805436     5.89947173    -1.28139010
H    -4.93107027     3.49334876     1.24840123
Cl     6.74669201    -1.18558530    -0.23491201
Cl    -5.21745315     5.78154310    -0.25723119
N     1.69965480     1.65621562     0.61759121
H     1.52276374     1.79827323     1.59957084
C     0.59877057     1.99491557    -0.15322049
O     0.45614116     2.01082734    -1.35265290
N    -0.47857830     2.30181115     0.65510379
H    -0.41211062     1.79536716     1.52397929
H    -2.94010266     1.93571426     1.74789116
H     2.75634588     1.09428917    -1.83062866
Cl     4.96443485    -0.36736035    -2.83030897
