%nproc=8
%mem=4000MB
#opt=(noeigen,calcfc,ts,recalc=5,maxcyc=200) freq B3LYP/SVP em=GD3BJ

ts-4591.gjf

0 1
O  3.58453211922169  -1.93179627845418  -1.21463833131905
Cl  -0.79732352923883  -4.63393344459473  -2.78646633299109
H  4.42308452841754  -1.54663614994911  -1.58663800423700
Cl  -0.70637269658733  -2.23779896273931  0.94791279738438
C  -3.10051713264562  2.71903086766457  -1.76353731064036
C  -2.13637765301058  2.60109782238060  -0.69857614088208
C  -1.39899629410929  1.50741159962842  -0.46193435732597
C  -1.66631082024594  0.29626375929832  -1.30698984332528
C  -2.86375706849573  0.36616995012246  -2.17077809412121
C  -3.62848203566527  1.55855021639813  -2.29240541696757
H  -2.03498922786886  3.56973420606464  -0.16478841098825
H  -0.66884988599605  1.55076241049190  0.33755910838855
C  1.12640224585753  -3.72493298185376  -0.97407614977019
C  3.56674830957650  -3.07428536007899  -0.51719975991164
C  0.35538415823383  -5.04037210054643  -1.37172063655195
C  2.42764722979657  -4.04600543061057  -0.81738805696824
C  1.47311481457273  -6.12598075645831  -1.45963087830970
C  2.69237362824591  -5.53945880691672  -1.09331431530072
H  1.25862319231869  -7.15344350724787  -1.60092119252223
Cl  -3.81866752310377  4.24782886881688  -1.78679222834998
Cl  4.01483873935663  -6.47738937980638  -0.50712614453845
N  -0.95046999775466  -0.88923266556273  -1.28588984996574
C  -0.38569226307678  -1.76356660690549  -0.59184947248230
O  4.30830522406754  -3.58288808277765  0.27976834864734
N  0.59472831228004  -2.50911214252518  -1.35786501165673
H  1.45186241162343  -1.98753983222313  -1.69906061142066
H  -0.13366292649289  -5.44527554526296  -0.49830544092471
H  -3.26628670315779  -0.50865579369323  -2.66491221160561
Cl  -5.17685582216230  1.61418427459977  -3.08702656445021

