%nproc=8
%mem=4000MB
#opt=(noeigen,calcfc,ts,recalc=5,maxcyc=200) freq B3LYP/SVP em=GD3BJ

ts-4611.gjf

0 1
O  3.91969738345988  -2.23741463334307  -1.82113529766102
Cl  0.25009020407565  -4.77235294026336  -3.43431462205635
H  4.71885035343162  -1.73109057642369  -1.93338834859670
Cl  -0.72701653865294  -1.95426865888369  0.41568766316329
C  -2.75810544554264  2.62131672640102  -1.66854406199568
C  -1.49511407492280  2.45316408554035  -1.27069115068911
C  -0.91382932057550  1.24385714044942  -1.26470930024887
C  -1.70077866767945  0.13949734278506  -1.57755216597787
C  -3.01789604608697  0.15016305686862  -2.01446876754868
C  -3.43678604703886  1.46810689746155  -2.20182726952424
H  -1.04115618557192  3.34073576631343  -0.94088553604262
H  0.09943798305198  1.10857552558362  -1.07381058908971
C  1.13529895376199  -3.55532160945676  -1.11682919114137
C  3.60634796256085  -2.82720861128927  -0.69282703025180
C  0.39162929404849  -4.84635943444119  -1.14161122841314
C  2.42578656464939  -3.77380225221480  -0.66114491625218
C  1.15566982411797  -5.86153857425333  -0.56785539829354
C  2.51304020741673  -5.24100814009409  -0.51700923430210
H  1.02447136634312  -6.95092123585876  -0.42777840011314
Cl  -3.49332216363077  3.95832803502024  -1.48243832427346
Cl  3.81853743990773  -6.25804098810494  -0.70679131492216
N  -0.92558952253229  -0.90555465567142  -1.86846785099402
C  -0.21868342049196  -1.59864267964897  -1.10769985544063
O  4.16519391933461  -2.75224756630521  0.31693112940005
N  0.80204346371428  -2.34568806616446  -1.60192390592322
H  1.26676400116991  -1.95300276526020  -2.46224400828802
H  -0.71237638637617  -4.66187275981127  -1.08738305989645
H  -3.64508989405020  -0.63388543111734  -2.40150001215254
Cl  -5.05951715214591  1.87992224845159  -2.78149582861504

