%nproc=8
%mem=4000MB
#opt=(noeigen,calcfc,ts,recalc=5,maxcyc=200) freq B3LYP/SVP em=GD3BJ

ts-4621.gjf

0 1
O  4.30417870328154  -2.35856340450332  -2.04639255311218
Cl  0.81628915489109  -5.03582106859403  -3.92755536806295
H  5.08235194844132  -1.88180674068975  -1.80228813379174
Cl  -0.78758320097678  -1.85977910035809  0.26568928786688
C  -2.82273267576495  2.49832392767756  -1.45322259061998
C  -1.46709928953423  2.38783704302131  -1.64836679778860
C  -0.94263495152592  1.15120518370442  -2.06852000907154
C  -1.62440235283007  -0.02655013494329  -2.26762611717737
C  -2.96662107915264  0.22993995024927  -2.22659404027050
C  -3.64198987642876  1.46533619232447  -2.09510828703932
H  -0.97474165716485  3.26470673332114  -1.21560740382622
H  0.12263321068082  1.13107900845976  -2.33895324718280
C  1.29849915243009  -3.42859444117407  -1.20202741023586
C  3.78402922950233  -2.84893403058006  -0.84454657385414
C  0.46991303582082  -4.33380293823247  -0.48238198146672
C  2.63935891846635  -3.72688727434555  -0.89646412364348
C  1.26495146462452  -5.34465973867460  -0.01723725061927
C  2.56388589933505  -5.11168274854997  -0.65296502430757
H  0.86396539448209  -6.36621347051893  -0.09988311067435
Cl  -3.51778692118855  4.16955298327062  -1.33351617646572
Cl  3.84595110278812  -6.23539654015168  -0.50584734407668
N  -1.13769156603211  -1.27972568423223  -2.54214564603416
C  -0.36073041279466  -1.83826168445512  -1.77929484396962
O  4.22622041941839  -2.52768942311061  0.29102221226113
N  0.77145159021001  -2.44038431311553  -1.93878267550553
H  0.98470648125108  -2.23627224378093  -2.92289865426059
H  -0.60713301587639  -4.55983988429749  -0.29748894103122
H  -3.69041345753935  -0.55919819532688  -2.38735803622762
Cl  -5.20794033843101  1.83181303345502  -2.66182032169911

