%nproc=8
%mem=4000MB
#opt=(noeigen,calcfc,ts,recalc=5,maxcyc=200) freq B3LYP/SVP em=GD3BJ

ts-4641.gjf

0 1
O  4.63227891507326  -2.62969581245209  -2.35377109706257
Cl  1.54652434075829  -5.84066029546389  -4.86991172879897
H  5.22774747356729  -1.87013784817601  -2.41841478988278
Cl  -0.97609579067711  -1.24003929522438  -0.36555536207803
C  -2.93598501595563  2.36015865352274  -2.22913338091418
C  -1.59224139348946  2.44840454426868  -2.40237930536584
C  -1.08906509014477  1.23691782440397  -2.81936957287257
C  -1.79279156770735  0.09137315187807  -3.01163971503874
C  -3.17300455790681  0.07265148757003  -2.89919870705137
C  -3.80237352430874  1.23496080724262  -2.51038369272594
H  -1.15768892561294  3.35090768359606  -2.73977098155758
H  -0.04237895545768  1.15139455744413  -2.85702614265178
C  1.31407465967762  -3.53962413286272  -1.63432585275294
C  4.00573485814658  -2.82944995328442  -1.30374001907248
C  0.59541948312835  -4.33548149059281  -0.77606459964393
C  2.76763091740063  -3.58990376058761  -1.23383989672951
C  1.44485451766714  -5.27176461374557  -0.15640371151244
C  2.83407440156860  -4.78101426425598  -0.38680674102863
H  0.95873679163839  -5.98006747666113  0.52184814135834
Cl  -3.74794457050691  3.82109250988806  -1.69611705176870
Cl  4.19103927636982  -5.56631214703997  0.06732075582621
N  -0.98558989163414  -1.04471480959250  -3.00849173573818
C  -0.40823280214434  -1.59120134252687  -2.00728334124036
O  4.32652370321942  -2.43636818785803  -0.18947660342409
N  0.67992833633852  -2.47298551648365  -2.26428678857628
H  1.05222661077263  -2.22099707242849  -3.15390864064670
H  -0.39184148552701  -4.79052446911341  -0.95097520037009
H  -3.86224281550769  -0.70562648988001  -3.20296481590081
Cl  -5.46306980628253  1.51338283672111  -2.18460324196704

