70
 energy: -143.107463699231 gnorm: 0.098795021903 xtb: 6.6.1 (8d0f1dd)
O     1.38240933    -3.74003225    -2.63659043
H     2.25387311    -3.34843452    -2.71746140
H     0.71087750    -3.57371290    -3.30045907
O     1.51893960     0.39756676    -4.51783186
H     1.67668438     1.04072141    -3.82442903
H     0.71576487     0.73320498    -4.91982118
O    -0.06760123     3.08873227     3.72016146
H    -0.59855684     3.24193396     2.93660930
H     0.40428206     3.88492400     3.97064750
O     1.88327899    -1.44106130     4.82840879
H     2.45770889    -2.01071418     5.34305903
H     2.34681924    -0.60310515     4.78046736
O    -5.17036804    -0.53016400    -1.47934589
H    -5.00987142    -1.44618272    -1.71277626
H    -4.77889443    -0.27350433    -0.64255898
O    -1.32247839    -2.94519577    -4.33182971
H    -1.63859016    -2.06385771    -4.12529990
H    -1.34552283    -3.01890638    -5.28753633
O     1.58833437    -4.20466302     0.25159755
H     1.39643773    -4.14722779    -0.68606674
H     2.47079745    -3.84830555     0.36824594
O    -2.18720292    -0.80653926    -0.59755997
H    -2.01487272    -1.74626064    -0.51654016
H    -1.40826951    -0.52487030    -1.08053186
O     1.34399787     2.58141760    -2.22947604
H     1.98842998     3.25417562    -2.00266668
H     0.91185467     2.39070327    -1.39507918
O     0.53111444    -0.73742301    -2.25967475
H     0.50583070    -1.67884239    -2.07959525
H     1.04669487    -0.58919731    -3.05437233
O    -2.20789560     0.16208572    -3.10437957
Cl    -3.24587771     1.27131800    -3.87467764
H    -2.79526924    -0.06208006    -2.37271823
O     1.56666362     4.93331477     1.59380632
Cl     0.41853532     6.10745464     2.04587007
H     1.02293852     4.21178227     1.25566291
O    -0.85052565    -1.03563721     4.16744013
Cl    -0.88833994    -2.17957631     2.90603725
H    -0.09208061    -1.33404514     4.68348272
O     2.63773516     1.62371128     4.59298014
Cl     2.81001603     2.36118435     3.06732827
H     1.75585332     1.77119651     4.95508594
C     4.62245956    -0.84718150     0.11473302
C     3.88309773    -1.58575019     1.03047481
C     2.72118784    -1.07288905     1.57511033
C     2.17945278     0.09741023     1.03306449
C     2.99175554     0.86100550     0.19522078
C     4.19596639     0.40221012    -0.32610895
H     4.27523761    -2.53738312     1.36432512
H     2.29328058    -1.64466304     2.39117737
C    -2.44853280     1.86350660     1.49269439
C    -2.48853784     3.07605422     0.79987031
C    -3.63434376     1.25790005     1.91807671
C    -3.70502851     3.63944975     0.43599483
H    -1.56678343     3.47786190     0.41091611
C    -4.84622392     1.78265738     1.49970074
C    -4.86399600     2.94195534     0.73825819
H    -3.70713717     4.56749589    -0.12083643
H    -5.71903982     1.25831630     1.86582892
Cl     6.14291767    -1.50514361    -0.39566058
Cl    -6.41977299     3.49230495     0.17319794
N     0.84018285     0.39345846     1.33012772
H     0.43683159    -0.38291755     1.83043043
C    -0.02090355     1.43678524     1.02877471
O     0.34053830     2.45918030     0.49651310
N    -1.23750628     1.15717591     1.62034025
H    -1.30017533     0.31290465     2.16726497
H    -3.60700355     0.36601390     2.53550329
H     2.67949085     1.85619338    -0.07691316
Cl     5.12251097     1.25007283    -1.52109570
