%nproc=8
%mem=4000MB
#opt=(noeigen,calcfc,ts,recalc=5,maxcyc=200) freq B3LYP/SVP em=GD3BJ

ts-613.gjf

0 2
C  -4.74091035834931  -0.77735612626667  1.68442292917553
C  -3.78005344244029  0.15323632854443  1.28256934754671
C  -2.74101605959974  -0.39615721644101  0.58888120935381
C  -2.49405283963094  -1.74262340064992  0.29536717101407
C  -3.63500663762618  -2.60379276468417  0.41139113159231
C  -4.76725126422713  -2.04815177117235  1.04486584298128
H  -3.81737228735646  1.22869996523178  1.21327409551152
H  -1.90691452521549  0.26295837516655  0.24250443865889
C  1.30137659690003  -2.32563737513982  -2.16416845095148
C  1.71426708058423  -3.37620987988495  -3.00444723398597
C  2.39667000819432  -1.70269088127797  -1.49594111406979
C  2.88955694294054  -3.55478849875591  -3.56321518324642
H  0.86318645203467  -3.95939308289882  -3.36347045244684
C  3.74704351290400  -1.79835260082525  -1.90206931564972
C  3.86205247145377  -2.72612434677277  -2.98161987379751
H  3.12207400510336  -4.22786253951751  -4.34720816564169
H  4.67343293278579  -1.48205931167075  -1.45819800942264
Cl  -6.02445303393524  0.26098746853034  2.27313250099772
Cl  5.23041207775231  -2.33842195078717  -4.11248105188728
N  -1.30609923087046  -2.05550714617682  -0.42852137796843
H  -1.35568472709566  -3.03635594497432  -0.76037148814480
C  -0.62529719822214  -1.17681020525202  -1.40910191552181
O  -0.55528558561514  0.01752111944337  -1.34178772099591
N  0.11699893843803  -1.76602005521863  -2.37156967346957
H  2.25795022218500  -0.96095718477271  -0.75022188042485
H  -3.75090580096899  -3.61259521449183  0.02766771810564
Cl  -6.37785030003500  -2.95885753146405  0.84141038950718

