%nproc=8
%mem=4000MB
#opt=(noeigen,calcfc,ts,recalc=5,maxcyc=200) freq B3LYP/SVP em=GD3BJ

ts-4965.gjf

0 2
O  4.84128654212860  -0.83738992592824  -0.93302671362288
H  5.74910365360839  -1.07612246119442  -0.51738427814936
Cl  5.05866354791829  4.02607340549241  1.58556395966892
C  -2.58687801139193  -1.13820261357473  -4.19159982896331
C  -2.41074961514138  -1.22235632535157  -2.79872489068894
C  -1.19067279329202  -1.43143377132221  -2.21907778735117
C  -0.10179498930802  -1.34386504794113  -3.16593778563209
C  -0.31458789307955  -1.30516570097377  -4.57480987913130
C  -1.59643781701164  -1.23304490353161  -5.19637419318325
H  -3.34553241443914  -1.20820652337791  -2.19071686277900
H  -1.09300045677485  -1.76209692840399  -1.16166676919276
C  2.52517638022634  -0.20959564192830  -0.05258490690405
C  3.54976462802848  -1.37932643337581  -0.29470076418315
C  2.61820709424762  0.56517023847037  1.03523474638394
C  4.11845993905007  -1.92749596838231  0.97481256318954
C  3.06976780773399  0.05619853528622  2.15763719643360
C  3.70175856540264  -1.23159999393060  2.16085526689633
H  4.89709669438526  -2.68010370116245  0.95025109066571
H  3.44391185587082  0.64700658707491  2.97166732111856
Cl  -4.21538573254755  -0.80783835864542  -4.60509155685693
Cl  4.52710523946540  -1.65631686144699  3.77030623277333
N  1.21969451590115  -1.65905007165481  -2.71513103968144
C  1.69959157376187  -1.26180423965472  -1.64462883832345
O  2.81117285763824  -2.17955430295922  -1.11704906056829
N  1.38058735525632  -0.31326984007374  -0.65044179000524
H  2.07960431881480  1.50215601509813  1.01221833080657
H  0.65066849058052  -1.32327296595567  -5.12139717210972
Cl  -1.78050085320760  -1.24961232242032  -6.97243315255170

