70
 energy: -143.149421136566 gnorm: 0.128219217861 xtb: 6.6.1 (8d0f1dd)
O    -2.88323033    -1.14460145     3.00185841
H    -3.08298238    -1.90802765     3.54648449
H    -3.06827146    -1.29395009     2.07299165
O    -1.90722808     0.45327542    -0.87409991
H    -2.17452579     0.51051721    -1.79312880
H    -2.59652250     0.42174907    -0.20835419
O    -0.35828002    -0.05961271     3.18302183
H     0.16311046    -0.50468317     2.51264665
H    -1.25470424    -0.39721985     3.14079156
O    -3.31840742    -1.91169317     0.42329732
H    -3.89677208    -1.27638125    -0.00239277
H    -2.55893657    -2.05758738    -0.14349838
O     0.85853641    -1.88889209    -2.75323958
H     1.22384393    -1.04239674    -3.01655540
H     1.60927512    -2.48172008    -2.68778367
O    -0.36553916    -1.76363467    -0.40746172
H    -0.64291600    -0.87087659    -0.62049476
H     0.21740473    -1.93842326    -1.14838333
O    -1.85908194    -3.28570094    -3.20526539
H    -0.98399992    -3.01754834    -2.91949785
H    -1.74241089    -3.74434102    -4.03915730
O    -4.33653948    -1.52921731    -2.82384207
H    -4.20946781    -2.14410076    -2.09919780
H    -3.62587988    -1.90051041    -3.34961851
O     1.35733842     0.62640026    -3.90305133
H     2.31296663     0.62429270    -3.98121073
H     1.09312661     1.49678994    -3.59981588
O    -5.04071381    -0.10497772    -0.67344367
H    -4.69718062     0.15165542    -1.53103490
H    -5.93312029    -0.37439870    -0.89785691
O    -0.83866507     2.08528492    -3.04549969
Cl    -2.42043340     2.71192048    -3.12611630
H    -0.46586034     2.09056560    -2.15579459
O     1.54862867     4.71112461     2.02741305
Cl     1.90532906     5.39451928     3.54626169
H     2.43600389     4.49066793     1.71992129
O     1.30868530    -1.39997193     1.52290408
Cl     2.12665800    -2.84504746     1.90216808
H     0.58560841    -1.51331909     0.89449469
O     1.67072103     1.24986710     4.41127281
Cl     0.72432468     2.25109039     5.41279501
H     1.19148820     0.44784702     4.17109004
C     5.01468034    -0.94835658     0.11646130
C     4.89990147    -0.54701675     1.44178193
C     3.87413011     0.23428175     1.93882793
C     2.90961335     0.63605178     1.00867788
C     2.96422426     0.23285456    -0.32524309
C     4.07006400    -0.47125182    -0.78757877
H     5.63095682    -0.83330875     2.18638244
H     3.87266642     0.75708919     2.88891516
C    -1.54901822     2.60602636     1.02168405
C    -1.62778428     3.57883329     0.02202414
C    -2.66990123     2.11283441     1.69565735
C    -2.90889493     3.91681917    -0.39533723
H    -0.73501020     3.95830143    -0.44842705
C    -3.91540388     2.57103398     1.29836834
C    -4.05097757     3.46845449     0.24939807
H    -3.05754888     4.59024901    -1.22944119
H    -4.79463737     2.17268721     1.78730529
Cl     6.28558243    -1.98139861    -0.45172939
Cl    -5.64234530     4.04747809    -0.16881269
N     1.84311560     1.41999800     1.47509593
H     1.90603481     1.70444912     2.43991894
C     0.79258386     1.93299851     0.73076560
O     0.84224969     2.15094036    -0.45636072
N    -0.34162658     2.06934713     1.50744380
H    -0.43884606     1.56540438     2.37487568
H    -2.65990031     1.32558804     2.44236153
H     2.18988356     0.56980532    -0.99518761
Cl     4.25442224    -0.82925937    -2.47375551
