70
 energy: -143.134827118504 gnorm: 0.092810432988 xtb: 6.6.1 (8d0f1dd)
O     0.87615621    -2.94364880     3.17209578
H     0.29085104    -3.45831607     2.61363943
H     1.63320221    -2.66565173     2.65350379
O    -1.51653075     1.28740096     0.66140207
H    -1.32159662     2.00070570     1.27175921
H    -2.47207267     1.26224979     0.58626805
O    -3.33009341    -3.17941393    -0.09246261
H    -2.84455633    -2.88227924     0.67909642
H    -2.63235202    -3.22551865    -0.74848827
O    -1.05341975    -1.72492268     0.78264277
H    -0.85744253    -0.92488290     0.29185947
H    -0.37205917    -2.39568085     0.71074222
O    -2.92610968    -0.94931408     2.68356205
H    -3.78841188    -0.62168578     2.42196350
H    -2.33386127    -0.91882856     1.93013617
O     3.61385805    -1.97320433    -1.89992816
H     3.34160275    -1.05511614    -1.94818906
H     4.56891274    -1.91142727    -1.95818263
O    -1.05103230    -3.61119178    -1.92199170
H    -0.29491400    -3.69658338    -1.33861289
H    -1.42194053    -4.48519027    -2.05575389
O    -0.15677685    -0.29344945     4.00730024
H    -1.05493040    -0.59915433     4.14587478
H     0.28382696    -0.97035800     3.49058019
O     1.80473537    -0.07039320    -2.24564031
H     1.75271321     0.88589102    -2.29203837
H     0.88854087    -0.34638527    -2.30690874
O    -1.00813039     0.40588974    -1.79590207
H    -1.49541961    -0.36092028    -1.48948738
H    -1.17737926     1.14122144    -1.20431066
O    -4.50987106    -0.53985571     0.07632156
Cl    -6.07145065    -0.97397200     0.59993827
H    -4.11508446    -1.41923084     0.03851504
O     0.58151978     2.14088260     3.42736722
Cl    -0.32363027     3.23682452     4.36586567
H     0.39238789     1.28395309     3.82797681
O     1.46166064    -3.22043562    -0.33571927
Cl     2.71096732    -3.92379832     0.58388800
H     1.98667497    -2.57302543    -0.82131799
O    -2.52784704     1.72210313     3.09397255
Cl    -3.62928351     2.77442557     3.85595418
H    -2.80204492     0.81060392     3.25072965
C     5.26627088    -0.18849858     0.45164349
C     4.37462429    -0.33279554     1.50751622
C     3.34319808     0.57449716     1.65807791
C     3.18687197     1.64082048     0.76622166
C     4.13515087     1.85154086    -0.23440790
C     5.15066354     0.91490041    -0.38881044
H     4.60302389    -1.10758558     2.22749463
H     2.57887132     0.46547500     2.41959892
C    -0.72314984     4.04503766    -0.81583884
C    -0.61268221     4.23226846    -2.19591820
C    -1.96467656     4.33799114    -0.24430856
C    -1.73227460     4.48646700    -2.97794477
H     0.27445052     4.07425475    -2.78785843
C    -3.00818259     4.82403350    -1.01497083
C    -2.94753504     4.81971834    -2.40075069
H    -1.73496678     4.44038804    -4.05924247
H    -3.96540531     5.11045709    -0.59966699
Cl     6.54408898    -1.27606579     0.01622766
Cl    -4.37201190     5.13748553    -3.35600439
N     2.13502003     2.55878906     0.90931665
H     1.64036028     2.52715063     1.78685040
C     1.53681995     3.21416037    -0.15532382
O     2.10029743     3.40745795    -1.20621084
N     0.23563353     3.59394715     0.11100186
H    -0.10510872     3.47091913     1.05153729
H    -2.16540818     4.30148311     0.82142971
H     4.10294339     2.69481447    -0.90509205
Cl     6.19686237     1.01063076    -1.76781476
