70
 energy: -143.142025502645 gnorm: 0.107191912879 xtb: 6.6.1 (8d0f1dd)
O     0.57530655    -2.94853167     0.22459513
H     0.62777656    -2.11464748    -0.24574738
H     0.31956633    -3.64302054    -0.38501198
O    -2.50637946     0.47750235    -4.11701796
H    -2.51378159    -0.46606538    -4.28720588
H    -1.82280387     0.90816984    -4.63333956
O    -0.40927908    -0.38556926     2.48376330
H    -0.50261468    -0.00798368     3.36015146
H    -0.26816849    -1.32466098     2.61617522
O    -1.66897215     0.86275751     5.54733549
H    -0.90831440     0.61667464     6.07665769
H    -2.40146623     0.61506409     6.11429127
O     1.97323437    -1.61374738    -2.08984522
H     2.09429296    -2.52267435    -1.80960287
H     2.80662952    -1.22598919    -2.36267156
O    -1.07540749    -3.85833025    -1.70459714
H    -1.48312561    -3.28551851    -2.35651019
H    -1.79728813    -4.28659888    -1.24111706
O    -1.05095685    -0.41075222    -1.30408489
H    -0.83893957     0.29278284    -1.92005934
H    -0.28685861    -0.98744143    -1.25002917
O    -2.78363601    -2.43861165    -3.97241268
H    -3.21274681    -3.21786022    -4.33014688
H    -3.20326090    -2.32623016    -3.11764846
O     0.18799763     1.36830158    -3.12151581
H     0.93589537     0.85428892    -2.81203469
H     0.18552873     2.03313969    -2.43063086
O    -3.30032149    -2.01896120    -1.48231103
H    -2.47540169    -1.64519991    -1.16743301
H    -3.94878624    -1.31377894    -1.44294427
O    -4.40116581     0.53956796    -2.43576968
Cl    -4.48053503     1.93860802    -1.46749821
H    -3.60116788     0.70452998    -2.94897262
O     2.34700587     3.27313809     4.13807772
Cl     2.74629175     2.10800722     2.96155509
H     1.38904889     3.36536897     4.20440262
O    -0.08452603    -3.29127118     2.79394218
Cl     1.27401079    -4.18454869     3.30148216
H     0.02806255    -3.16792349     1.84383941
O    -0.60526029     3.11246591     4.35899325
Cl    -1.19162152     4.63077312     4.86107349
H    -1.28882997     2.51576392     4.68651012
C     5.15844541    -0.86685492    -0.11786608
C     4.51946793    -1.13505753     1.08649998
C     3.27571849    -0.58059260     1.32175486
C     2.72873209     0.37184788     0.45540975
C     3.47678906     0.81863336    -0.63348370
C     4.72565760     0.24318062    -0.83740276
H     4.94270824    -1.79791620     1.82968294
H     2.79613160    -0.86824868     2.25086512
C    -1.41652704     3.04764270     0.46481489
C    -1.31157788     3.80282192    -0.70589748
C    -2.55337014     3.08101837     1.27742241
C    -2.40075057     4.59287558    -1.05113306
H    -0.33365897     3.83856656    -1.15840487
C    -3.61229106     3.91007412     0.94513434
C    -3.54722576     4.57120586    -0.27254946
H    -2.36581388     5.21410090    -1.93668020
H    -4.42988269     4.03857790     1.64214350
Cl     6.67197740    -1.64755549    -0.44180433
Cl    -4.95218518     5.41761011    -0.86610548
N     1.41242566     0.73707362     0.77709671
H     0.97994972     0.28333231     1.56629764
C     0.74642199     1.80255522     0.19228714
O     1.09242865     2.31730313    -0.84431707
N    -0.36524247     2.21822954     0.89916081
H    -0.62335545     1.65575088     1.69467541
H    -2.52524201     2.65171886     2.27358243
H     3.07847594     1.56772145    -1.29844883
Cl     5.70786275     0.80170825    -2.15219139
