3
 energy: -9.064873731526 gnorm: 0.000376394839 xtb: 6.6.1 (8d0f1dd)
O            2.44147307724350       -0.35916884548702        5.74439270755041
Cl           2.98743857658408       -0.63929162312357        4.15278034911779
H            1.49636364779521       -0.55399107516844        5.74863227049762
