3
 energy: -9.064873761360 gnorm: 0.000337665600 xtb: 6.6.1 (8d0f1dd)
O            1.95331798916242       -0.51680941075585        4.88698913785217
Cl           3.25686600073096       -0.82910119977243        3.83074408648916
H            2.34013473114765       -0.35195236128398        5.75561276268857
