3
 energy: -9.064873672416 gnorm: 0.000382432263 xtb: 6.6.1 (8d0f1dd)
O            2.73499417219927       -2.19585699027365        2.90223556553824
Cl           3.62424681521318       -1.32786964673946        4.07096029789662
H            2.15608280221705       -1.55723340469495        2.46725889162297
