3
 energy: -9.006215904578 gnorm: 0.000546687058 xtb: 6.6.1 (8d0f1dd)
O            3.36002018865568       -2.51119126390776        2.05710677293923
Cl           3.74098601212646       -1.34153272358269        4.47916090070180
H            3.20818048405448       -2.93402804510843        1.20795493702084
