%nproc=8
%mem=4000MB
#opt=(noeigen,calcfc,ts,recalc=5,maxcyc=200) freq B3LYP/SVP em=GD3BJ

ts-2409.gjf

0 2
O  0.79253200741110  -0.37330369781638  3.83991675579803
C  -1.78426606482533  -3.62927056662062  2.01382109734644
C  -0.41262669648025  -3.55811440378726  1.91523539409892
C  0.19997113632568  -2.39035978825817  1.61633882587904
C  -0.41624785070367  -1.09238144829534  1.71654332795236
C  -1.89895280299047  -1.25859235294673  1.80658339754151
C  -2.60887927560641  -2.44453050016354  1.86258014371925
H  0.21327295465221  -4.40457263323920  2.07337965869017
H  1.20595550315592  -2.46078291192478  1.26333639030577
C  2.53820401217457  1.00021325641758  4.81862120271340
C  2.46087885398430  2.34308962413188  5.18728070636305
C  1.27853200394939  0.12399875463145  5.01354434715808
C  1.48539205575439  2.62267595984797  6.15482632593366
H  3.25471195057596  2.97368458378249  4.78031953495059
C  0.15014000452172  0.62331640129076  5.82251727238163
C  0.35949669419445  1.82042831257710  6.28312197132007
H  1.42022304436057  3.67506300657440  6.29764156738143
H  -0.68575566305427  -0.10025620496215  5.68019183218702
Cl  -2.53388374870190  -5.08223387041719  2.00078387684298
Cl  -1.04726610091078  2.51072620736932  7.07025018988984
N  0.27424542943439  -0.02950936114607  1.64698175993839
C  1.10176318860559  0.24861986705697  2.68128315648133
O  2.02798691513810  1.03670653391490  2.52065665501369
N  3.57267630765372  0.26062042437422  4.61719963179683
H  4.41668600374487  0.74929500514732  4.45371229367144
H  1.68031678416526  -0.76350908232981  5.66236961898097
H  -2.52011715856435  -0.34532457208891  1.73606212737797
Cl  -4.11822757416086  -2.76714097684846  1.12494093324575

