%nproc=8
%mem=4000MB
#opt=(noeigen,calcfc,ts,recalc=5,maxcyc=200) freq B3LYP/SVP em=GD3BJ

ts-2419.gjf

0 2
O  1.05424809000343  -0.63461078422871  3.83326686029969
C  -2.01539088101976  -3.64904325181541  1.80913173824735
C  -0.63437101070751  -3.60322594965520  1.74826746302693
C  0.07055846869331  -2.45412572570141  1.44524046448277
C  -0.49493293061918  -1.14243151259754  1.55071059320722
C  -1.91076370160979  -1.20200846454516  1.67178956194267
C  -2.64394526638035  -2.40446577480694  1.73303365066915
H  -0.27319876773603  -4.63062353977545  1.77831953844275
H  1.13800677866975  -2.48209874721280  1.29250628689742
C  2.44649408188059  0.48956988536846  5.58369199969796
C  2.52293419177704  1.77424818421116  6.27181160366558
C  1.02598897416900  0.44396332042062  4.71976556105187
C  1.41542482475932  2.60798213123244  6.39438639653612
H  3.47334468597779  1.75905942701109  6.81742550939920
C  0.16411667703299  1.72754430619366  4.45407027020220
C  0.22382482584623  2.46575826982959  5.63765513715078
H  1.75587595788842  3.57257955780486  6.76774511828686
H  -0.41263234176988  1.79808128057035  3.58496240901483
Cl  -2.75747846188034  -5.10747754873750  2.17125368615166
Cl  -1.20444959296954  3.08691805121885  6.64732253918945
N  0.34743831008039  -0.17789336397396  1.60716545137682
C  1.39546352241355  -0.11257330200304  2.38566048204599
O  2.49731971659812  0.33996954634507  2.18093255200528
N  3.48428188129571  -0.22576352328042  5.39477987806331
H  4.18171411588403  -0.08576809976594  6.08604713425765
H  0.56435481789077  -0.10126758357717  5.58100724413732
H  -2.41246945981170  -0.25134212356533  1.52121344264660
Cl  -4.19733489858131  -2.52090092950328  0.92943104529267

