%nproc=8
%mem=4000MB
#opt=(noeigen,calcfc,ts,recalc=5,maxcyc=200) freq B3LYP/SVP em=GD3BJ

ts-2459.gjf

0 2
O  0.64141608237022  -1.49891920495652  5.40358280750905
C  -2.21749122784521  -3.52008687484927  1.33443600307796
C  -0.99798714870482  -4.10381716277941  1.06558521494099
C  0.16275563365049  -3.35523151067490  0.93236321066797
C  0.09056312162506  -1.93532535215687  1.22542025910493
C  -1.08834032362575  -1.50939174162904  1.59187496762472
C  -2.33256412543843  -2.17775972477435  1.63154259594285
H  -1.08424640447040  -5.09258048501943  0.64967692951509
H  1.14183431591463  -3.86326597005983  0.97915593560255
C  -1.21379018496549  -0.14653785727111  6.27732090877047
C  -2.03348902091081  0.98605846519840  6.11026570327590
C  -0.08917187861615  -0.54255044692611  5.06875222059382
C  -1.69978933556292  1.94845868068365  5.21230512208521
H  -2.93568093516913  0.66196186504380  6.58016997156540
C  0.49910066347293  0.83289780297835  4.67236142978001
C  -0.19448846949362  1.96407406912862  4.85226094398483
H  -2.27990377198925  2.83853124526710  5.12386048303602
H  1.59565967827137  0.80576804564275  4.38200531121247
Cl  -3.52221256904793  -4.61904853660869  0.82436965085931
Cl  0.83678600685561  3.40324838745070  4.70501327469189
N  1.15397334105234  -1.01414004611304  1.32303293486181
C  1.25237072060848  0.23223468864456  1.42829064500978
O  1.44824242291627  1.34158407181711  1.60962176104476
N  -1.04102538569953  -0.86489552557276  7.21616914191169
H  -1.58821075441971  -1.02199603638902  8.08926311322746
H  -1.18464695195744  -0.64583161032708  4.27493131045745
H  -1.21103489707936  -0.44679723791398  1.64781153244963
Cl  -3.52504065929883  -0.99783516431152  1.53024076068132

