%nproc=8
%mem=4000MB
#opt=(noeigen,calcfc,ts,recalc=5,maxcyc=200) freq B3LYP/SVP em=GD3BJ

ts-2469.gjf

0 2
O  0.14264244044657  -1.65893397796881  6.02986878507672
C  -2.12100767667706  -3.32365384172212  0.85768766611427
C  -0.83176390646715  -3.95536396892645  0.99413302265572
C  0.30228306830274  -3.33188598365676  1.42956496271735
C  0.31675203470603  -1.88801301655340  1.29047035389586
C  -0.97673368841495  -1.24034202114959  1.25080035761842
C  -2.13424684109511  -1.94367721451462  1.24105286261750
H  -0.94598785971582  -5.02801712398106  0.98158130439243
H  1.16746815103174  -3.91477961629235  1.45553009863784
C  -2.02190464162223  -0.24617761433104  5.76512431119002
C  -2.43071076573169  0.96710960947064  5.14456064252809
C  -0.61617914136877  -0.89861621930471  5.26448770667126
C  -1.44026948469894  1.82801902557152  4.90459618973534
H  -3.45812577154710  1.37012209563731  5.21463103626042
C  0.20815833757084  0.27444888103703  4.70350710020870
C  -0.06188828655681  1.63871193844906  4.77876424333566
H  -1.90046269206761  2.73620246255860  4.47984464207365
H  1.25816976711512  0.01555363621615  4.66490206600214
Cl  -3.50852411981166  -4.18662648883581  0.42480794609422
Cl  1.04439822760817  2.93668794030055  4.63882521103792
N  1.38045928442725  -1.06021806655043  1.17754705975321
C  1.39913257732432  0.15258860224831  1.22565605028566
O  1.30319511560644  1.31626209987185  0.98194480782240
N  -2.67551970098476  -0.57024049925025  6.82053877810832
H  -3.59348437126782  -0.18216875865169  7.14420764699473
H  -0.88725116373869  -1.60287422429104  4.33087874303267
H  -0.96539173503006  -0.14124899591664  1.43093590100434
Cl  -3.56671331861353  -1.17325709608525  2.09114621302126

