70
 energy: -143.128440090434 gnorm: 0.109527285415 xtb: 6.6.1 (8d0f1dd)
O    -0.76888328    -3.09068702     0.59299742
H    -1.69952823    -3.10673500     0.82317225
H    -0.41799719    -2.67546180     1.38281111
O    -0.14740763     1.26203627    -2.66704260
H     0.25546640     0.60812209    -3.24100040
H     0.55909534     1.90576425    -2.59084600
O    -1.81380720     0.35088373     4.46009038
H    -2.54926353     0.58880279     3.89278347
H    -2.04008251     0.39665255     5.39070472
O     2.00626508     0.47230467     3.06827892
H     2.81907509     0.06117636     2.76885886
H     1.52701400     0.71522241     2.27414554
O    -3.16351944    -0.78576603    -1.81914887
H    -3.10087085     0.11968505    -2.12829719
H    -3.55155331    -0.89125399    -0.94872362
O    -0.76127581    -2.36979302    -3.14128925
H    -0.00991958    -1.78180202    -3.23651727
H    -1.44609757    -1.91003699    -3.63014813
O    -3.43738338    -2.95839293     0.36960610
H    -3.37810191    -3.22893016    -0.54834420
H    -4.22674891    -2.42890837     0.49564872
O    -3.13528379    -3.49636403    -2.11810039
H    -2.20504014    -3.45596223    -2.34690736
H    -3.50129087    -2.65093900    -2.38386692
O     1.58451683     3.09567116    -1.61438325
H     2.08386653     3.86995949    -1.34892882
H     1.39657553     2.60957528    -0.80956856
O     1.64073891    -0.82549216    -3.07358639
H     2.30147655    -1.46000879    -3.35669901
H     1.88943199    -0.50197472    -2.20593063
O    -2.60902804     2.17233822    -2.22685130
Cl    -2.85565826     3.43214029    -3.34633087
H    -1.70767932     1.84613252    -2.33523369
O     2.64361706     4.71564943     0.35356937
Cl     2.82733465     6.40821039     0.40504659
H     2.71942521     4.24189536     1.19046680
O    -0.50702624    -1.66648472     3.17191321
Cl    -1.31034153    -2.96608515     3.92483225
H    -0.77687520    -0.85943447     3.62626722
O     1.11579467     3.30794796     4.13526932
Cl     0.28831178     4.19253101     2.93779460
H     0.46547529     2.82815468     4.66202467
C     5.07923745    -1.17052290    -0.42431416
C     4.35730624    -2.34565671    -0.25520382
C     2.99045419    -2.22985812    -0.08788657
C     2.40878224    -0.96213798    -0.19481760
C     3.11960481     0.22067374    -0.39627024
C     4.49760628     0.08998943    -0.52446928
H     4.90090490    -3.27386764    -0.13790149
H     2.39830539    -3.13281611     0.01222411
C    -2.09444684     0.71631255     0.87818812
C    -1.98293677     2.06523820     0.53200526
C    -3.20032651     0.29346408     1.62121334
C    -2.96758084     2.95411487     0.94436900
H    -1.14849185     2.27624954    -0.11725732
C    -4.25785727     1.14259195     1.90347720
C    -4.10380099     2.48349168     1.58357549
H    -2.93938751     3.97687046     0.59150734
H    -5.20260771     0.77636962     2.28310711
Cl     6.80429921    -1.32712393    -0.49393094
Cl    -5.43637320     3.56454109     1.89694970
N     1.01558812    -0.95980059    -0.02588084
H     0.58166591    -1.85858850    -0.16604695
C     0.24108720     0.12918867     0.34163093
O     0.65074398     1.23994592     0.58170165
N    -1.08478982    -0.20430972     0.53932358
H    -1.31654740    -1.17556197     0.40219028
H    -3.22531166    -0.74952875     1.91948463
H     2.50084531     1.10177052    -0.34363873
Cl     5.49184292     1.49255051    -0.74732598
