70
 energy: -143.138884193957 gnorm: 0.098407846749 xtb: 6.6.1 (8d0f1dd)
O    -2.26416947    -2.29294949     2.30128079
H    -3.13833231    -2.16071937     1.93021134
H    -2.46861096    -2.73003929     3.12983065
O    -0.37507121     2.95472778    -2.62740107
H    -0.11011830     2.64819107    -1.75839359
H     0.11511631     3.74314142    -2.86710547
O    -0.39729437    -1.47090213     5.08516498
H    -1.06807134    -1.03922417     4.55313960
H     0.01071711    -0.77463747     5.60292991
O     1.02831499     1.92555942     2.64227824
H     1.71750270     2.41268016     3.09733060
H     1.47192137     1.24645301     2.13103826
O    -2.90075448    -1.34093471    -1.85597649
H    -2.04379883    -1.73846847    -2.02008960
H    -2.79430038    -0.42313974    -2.11221470
O    -0.32737687    -2.44568498    -1.51732746
H    -0.00602198    -2.69099075    -2.38674917
H     0.36294037    -2.86494118    -1.00058206
O    -4.16768988    -1.86572277     0.48880802
H    -3.71600190    -1.84486120    -0.35669787
H    -5.04692337    -1.53212271     0.30173034
O     2.10117497    -2.56131769    -3.07303684
H     1.97874914    -1.61179014    -3.02061996
H     2.57182693    -2.77991651    -3.87928606
O     2.49668019     3.29061968    -3.32177840
H     2.18769325     2.38486518    -3.38072277
H     3.11214169     3.37257891    -4.05241350
O     1.05061206     0.41611298    -3.17855171
H     1.03329346     0.89577099    -2.34851159
H     0.60627547    -0.41912796    -3.02274460
O    -2.79513939     1.66963355    -2.42432859
Cl    -3.93759032     2.72512059    -3.11852971
H    -1.96074917     2.14921439    -2.49052222
O     3.94441976     3.65043164    -1.03057434
Cl     3.37039700     3.40236914     0.55376385
H     3.21135376     3.61592729    -1.65668199
O     1.53533638    -2.21070242     3.57048341
Cl     2.61588519    -0.93361824     3.89084893
H     1.02494363    -2.25671828     4.38777644
O    -1.69633746     0.87919788     3.73071019
Cl    -2.68977895     2.12568921     4.33112188
H    -1.01272366     1.30524761     3.19991657
C     4.39722092    -1.46909095    -0.31103036
C     3.67079895    -2.41401367     0.40322092
C     2.35819826    -2.16961227     0.75964261
C     1.78521660    -0.95067020     0.38180237
C     2.52550611    -0.04308354    -0.37526668
C     3.81082929    -0.31754833    -0.82805264
H     4.08716786    -3.36625118     0.70441130
H     1.76641042    -2.87633854     1.33088747
C    -2.20453804     1.64958435     1.23418929
C    -1.56632648     2.89026939     1.30674361
C    -3.60145369     1.62961974     1.18852471
C    -2.31848347     4.05791720     1.32972262
H    -0.48990291     2.94817703     1.28871497
C    -4.36427200     2.78333833     1.11039668
C    -3.69672017     3.99619696     1.19660016
H    -1.83630753     5.01728925     1.46554170
H    -5.44022389     2.67536295     1.07218809
Cl     6.07630809    -1.81483404    -0.56858947
Cl    -4.70385964     5.38866905     0.89774988
N     0.44653260    -0.73067037     0.74105203
H    -0.04359793    -1.40720209     1.30481764
C    -0.25981442     0.42122823     0.43280248
O     0.03939718     1.29261442    -0.34847396
N    -1.43664588     0.47240250     1.15439959
H    -1.72253592    -0.38813218     1.59439394
H    -4.07215308     0.65231828     1.16117525
H     2.10668760     0.92897706    -0.57936051
Cl     4.61187851     0.77189526    -1.91284860
