70
 energy: -143.138719925179 gnorm: 0.117181082899 xtb: 6.6.1 (8d0f1dd)
O    -1.09540802    -2.80682451     0.21765123
H    -0.77926620    -3.43405107    -0.43501960
H    -2.04286158    -2.90605756     0.32638587
O    -0.36609882     1.35257461    -2.75250272
H     0.21935553     0.70671065    -3.15180428
H     0.04049380     1.47384250    -1.89266865
O    -1.11282423     0.62709261     4.38344155
H    -1.20936779     1.52596398     4.06399169
H    -0.42847147     0.58883700     5.05391614
O     2.64984255     2.63001810     3.16003893
H     2.46701347     3.42199041     2.65142085
H     3.21015203     2.10546938     2.58537347
O    -3.49990284    -0.39475129    -1.79178300
H    -2.84573025    -0.52639884    -2.48030775
H    -3.74682604     0.52179816    -1.65649022
O    -0.85293857    -1.32617027    -4.11946451
H     0.04799053    -1.00040292    -4.15871195
H    -1.35083568    -0.50684804    -4.13167138
O    -3.84279445    -2.73216720     0.07536268
H    -3.65409524    -2.02194049    -0.54051723
H    -4.45645450    -3.38250673    -0.27078532
O    -1.88360673    -3.46852166    -2.66229477
H    -1.60884481    -2.63358641    -3.04534463
H    -2.69363515    -3.68864492    -3.12569117
O     2.43865868     2.09356616    -2.67343495
H     1.81476504     2.76756979    -2.94877918
H     2.20587870     1.81165853    -1.78704938
O     1.60233795     0.00048478    -4.16265742
H     2.28645745    -0.52086108    -4.58635229
H     2.07359687     0.70150363    -3.70897702
O    -3.07193989     2.57494816    -2.49730767
Cl    -3.94118573     2.35065242    -3.94481080
H    -2.20506431     2.15212952    -2.51568004
O     2.34963965     4.14889618     0.80310971
Cl     1.79901099     5.75686717     0.69174540
H     2.25315037     3.64064388    -0.01111171
O    -1.11447686    -1.68731143     3.46959439
Cl     0.10922123    -2.34912189     4.45231191
H    -1.32691646    -0.81386625     3.81966447
O    -0.25425514     3.03883478     3.84699759
Cl    -0.30400234     4.63164600     4.44836142
H     0.62792787     2.80860714     3.53182074
C     5.13468489    -1.73364888    -0.52519274
C     4.16655779    -2.72945100    -0.56797758
C     2.85497769    -2.44806041    -0.23591454
C     2.44335170    -1.13242665     0.00191461
C     3.40161711    -0.12259591     0.08476832
C     4.73580334    -0.47760974    -0.07744682
H     4.62184939    -3.68499849    -0.79264056
H     2.07923669    -3.20544180    -0.26030375
C    -1.87812259     1.00162423     0.96437200
C    -1.61249296     2.36905475     1.07138668
C    -3.14624234     0.48739842     1.24950574
C    -2.65222086     3.25727995     1.31570503
H    -0.60358170     2.71934992     0.92388286
C    -4.13471355     1.37322625     1.64611138
C    -3.90071671     2.74028093     1.62398656
H    -2.46745851     4.32365280     1.30884759
H    -5.14477619     1.02936422     1.82589856
Cl     6.78498816    -2.10996338    -0.89948538
Cl    -5.23060834     3.85713115     1.78724632
N     1.06747476    -1.00330299     0.24650549
H     0.52382331    -1.78968856     0.56555967
C     0.43006800     0.22728824     0.25962164
O     1.02381751     1.23103946    -0.05530583
N    -0.89255863     0.05719048     0.62014764
H    -1.10824890    -0.92100245     0.73179151
H    -3.23830418    -0.59374285     1.25857384
H     3.17314492     0.88247419     0.40036220
Cl     5.91293467     0.77845499     0.12752252
