70
 energy: -143.144421555299 gnorm: 0.099386459402 xtb: 6.6.1 (8d0f1dd)
O    -4.12497952    -1.17716323     3.22976069
H    -4.97377071    -1.37745670     3.62822533
H    -3.85865192    -1.92264594     2.68877655
O    -2.40596006    -0.58868266    -1.26940591
H    -2.77828712     0.03773275    -1.89255524
H    -2.71529048    -0.30218732    -0.40825947
O    -1.51911377    -0.20566689     3.31509510
H    -1.02254374    -1.01352336     3.45695682
H    -2.43035496    -0.50356968     3.29987084
O    -2.79373532    -3.09801126     1.76964543
H    -3.32718543    -3.20296996     0.97986468
H    -1.89994617    -2.97601716     1.44468872
O     0.83572173    -3.28534240    -2.82187612
H     0.71928464    -2.37960328    -2.52961214
H     1.61991408    -3.28929098    -3.37356886
O     0.03958794    -2.52679782    -0.10513209
H     0.19635923    -1.65896894    -0.48147472
H     0.42802426    -3.25862379    -0.58771622
O    -1.95298268    -3.33841019    -1.81209692
H    -1.02203425    -3.56684524    -1.83423025
H    -2.07820685    -2.38864487    -1.85213846
O    -4.10941457    -4.27698388    -0.53082414
H    -4.86511935    -4.41844497    -1.10374404
H    -3.42996391    -4.15561102    -1.19637048
O     0.16085451    -0.65692411    -2.58713122
H    -0.73857069    -0.64303757    -2.25519738
H     0.56448594     0.21194259    -2.62573347
O    -2.89631067     1.72700685    -2.48414925
H    -2.41029470     1.85477531    -3.30072872
H    -3.04585154     2.59023761    -2.09452316
O    -0.77092969     3.36702261    -2.61220996
Cl    -0.71153561     4.81569601    -3.50606674
H    -0.24715425     3.43871566    -1.80529869
O     4.16928588     3.12357862     1.89578464
Cl     2.54085516     3.29743525     1.42764799
H     4.22068754     2.18871748     2.12811981
O     0.50618410    -1.97524032     2.51525173
Cl     0.84894491    -3.17437901     3.67531434
H     0.30285970    -2.49660306     1.72948700
O     0.98909986     0.76561198     3.67463684
Cl     1.71577046     1.16916893     5.16132862
H     0.06529333     0.83961542     3.94239245
C     4.94881713     0.34435813     0.12937137
C     4.42975511    -0.12575842     1.32949126
C     3.06141296    -0.16632282     1.51839153
C     2.22657611     0.26961551     0.48403367
C     2.72160403     0.73059548    -0.73553202
C     4.10180399     0.74257767    -0.90077789
H     5.10399453    -0.42672910     2.12047346
H     2.60463793    -0.74400868     2.31440106
C    -2.21228324     2.30885495     0.87380884
C    -1.93950071     3.57838688     0.35829373
C    -3.53809281     1.90484229     1.05508185
C    -2.94728105     4.38932807    -0.14808826
H    -0.92448645     3.93987554     0.39621475
C    -4.55987096     2.63219946     0.46687845
C    -4.22042464     3.84214856    -0.12038797
H    -2.69470337     5.36479794    -0.54305436
H    -5.61018571     2.40526666     0.59388821
Cl     6.67208980     0.43139508    -0.03785469
Cl    -5.50289099     4.79934090    -0.81442166
N     0.85053382     0.27881540     0.75963862
H     0.52397908    -0.18759829     1.59124853
C    -0.05105010     1.25835405     0.37432738
O     0.13858386     1.87414644    -0.64747156
N    -1.14454573     1.44998618     1.19639667
H    -1.28733720     0.86802345     2.00681510
H    -3.78279308     1.00635601     1.61209911
H     2.01305574     1.07793633    -1.46988801
Cl     4.77144560     1.52184869    -2.29708238
