%nproc=8
%mem=4000MB
#opt=(noeigen,calcfc,ts,recalc=5,maxcyc=200) freq B3LYP/SVP em=GD3BJ

ts-2845.gjf

0 1
C  -0.77421330364319  -0.61096620925495  -4.27766802762663
C  0.06210504163631  -0.20873070182711  -3.19130933148456
C  -0.23286863963135  -0.12051629250532  -1.85947674667889
C  -1.44858164231333  -0.72690953546313  -1.42761645946083
C  -2.45953555634649  -0.70929260169283  -2.44019737240054
C  -2.17629120559302  -0.69176661815514  -3.77493765795422
H  1.16402384135912  -0.01928450077034  -3.30797993930558
H  0.43473555577055  0.27250629824892  -1.11106019730617
C  -4.07417534944768  -1.68297651546588  2.02786531764181
C  -4.54333090252227  -0.29526858294791  1.97886692148332
C  -4.56167944053306  -2.25815465625055  3.23047302313581
C  -4.76084148728280  0.45368784395112  3.28029720396046
H  -5.25635677710666  -0.23311001867578  1.18388338441000
C  -5.02250551629626  -1.64052840272681  4.33996055583430
C  -4.87610547164986  -0.24269843713682  4.57194602239018
H  -5.58956003291020  1.12013617202590  3.13838833237657
H  -5.41179016839088  -2.17776577744041  5.20030202519115
Cl  -0.45948195418842  -0.15924719365080  -5.90682197409161
Cl  -5.80157932609483  0.85726151857455  5.68511030865322
N  -1.87714108345638  -1.36437705519928  -0.33779040540533
C  -2.97800411963753  -1.23432795825911  0.35065309441253
O  -3.35755203562212  -0.00840091116583  0.63330918149936
N  -3.27107789393308  -2.25439091807428  1.06577867757185
H  -4.72968967138619  -3.32980642317265  3.32018405008611
H  -3.50606177847389  -0.57356817296713  -2.17013780023619
Cl  -3.63061429868215  -0.40038353363058  -4.87942375597972

