%nproc=8
%mem=4000MB
#opt=(noeigen,calcfc,ts,recalc=5,maxcyc=200) freq B3LYP/SVP em=GD3BJ

ts-2855.gjf

0 1
C  -0.92699785313320  0.11629713201493  -3.94669536972302
C  0.09104574815887  -0.17018042331617  -3.04372390451801
C  -0.34746481880932  -0.77502519498975  -1.91740598149098
C  -1.70458667183916  -0.95354073867489  -1.44666655493509
C  -2.66510714388857  -0.47233664246417  -2.37028328030545
C  -2.24108320857238  -0.00524688159923  -3.62963523134146
H  1.08018757221400  -0.26447595012426  -3.37864530966976
H  0.38747843843990  -1.20030078016919  -1.27178779624791
C  -4.16673887291165  -1.90057198370131  2.03674243573079
C  -4.40624444577666  -0.32811335805621  1.88293375755470
C  -4.59220319330040  -2.57663513127108  3.13659438865778
C  -5.00682650771466  0.46511348415750  3.14198834581865
H  -5.12109904416882  -0.33447125596685  1.03577104752439
C  -4.84574859621111  -1.87929140809689  4.31079348776938
C  -5.21434152422725  -0.48963365188367  4.25574940543492
H  -5.75193742375229  1.26905115956471  2.99453751663018
H  -4.88592304169367  -2.32105405640597  5.32055988734637
Cl  -0.79577967387471  -0.40840657453518  -5.73550558259336
Cl  -5.28082079780745  -0.02730099177715  5.84651798768182
N  -1.92978486754354  -1.41235530344914  -0.20894604109528
C  -2.99644348944088  -1.24167230960455  0.44597517586856
O  -3.22768487290502  -0.07118427488815  1.31036455243127
N  -3.43508696038359  -2.33682954042259  0.93822955797825
H  -4.58371121514372  -3.65836585174249  3.37219669491932
H  -3.71395698520020  -0.52491775629274  -2.27216863588861
Cl  -3.30480816710076  -0.10146875897171  -4.99389123204707

