70
 energy: -143.148165719902 gnorm: 0.124415588474 xtb: 6.6.1 (8d0f1dd)
O    -0.01399370    -3.86138161     1.71428064
H     0.55868646    -4.61928879     1.84448111
H    -0.36053549    -3.53281091     2.54571841
O    -1.61398443     0.62827067    -2.13963723
H    -0.77606621     0.95365157    -1.80593210
H    -2.21050923     0.54523502    -1.39358005
O    -0.55075337     0.52347909     3.97871059
H    -1.01701647    -0.30602964     3.86101352
H     0.24854552     0.23118546     4.42032590
O    -1.77595830    -1.58598376     2.18909220
H    -2.35253958    -1.56742040     1.42322772
H    -1.04376210    -1.08849292     1.82067661
O     0.78857830    -1.35634435    -2.16436939
H     1.62179194    -1.38084599    -2.63817725
H     0.19092391    -0.87025375    -2.73521373
O    -2.10505525    -2.21650283    -3.00195837
H    -1.47664640    -2.09562855    -3.71598197
H    -1.72855280    -1.68181805    -2.30074688
O     0.65980702    -1.52447728     0.70969656
H     0.72791402    -1.41476890    -0.24038920
H     0.53737469    -2.45232131     0.91815366
O    -4.46809231    -1.23424960    -2.42763574
H    -3.75925077    -1.69349987    -2.88147607
H    -4.82275209    -0.56521940    -3.01581220
O    -0.74652132    -0.36008993    -4.55254182
H    -0.99122589     0.54778114    -4.36484954
H    -0.74901798    -0.47787111    -5.50409801
O    -3.37655486    -0.28020309    -0.31288085
H    -3.91340269    -0.65788398    -1.01180138
H    -3.78642890     0.52427157     0.00986068
O    -2.86016703     1.22056777    -4.43949304
Cl    -4.43008314     1.86960335    -4.31588704
H    -2.45561862     0.87200748    -3.63610477
O     2.03984438     2.45777827     3.81264473
Cl     2.62774754     1.74279313     5.24244569
H     1.43129918     3.14177949     4.11662201
O     1.91553470    -0.88859249     2.87631920
Cl     2.81477356    -2.33325879     2.80234232
H     1.39212591    -0.97742944     2.07087686
O    -1.07570211     3.06815085     4.10074999
Cl    -1.47749409     3.73630315     5.61511341
H    -0.98323097     2.12683960     4.29040834
C     5.43267973    -0.26797223    -0.50142083
C     5.29075627     0.19086041     0.80243999
C     4.10615237     0.71580661     1.28289198
C     2.97297601     0.74179803     0.46305862
C     3.11631223     0.32342473    -0.85955777
C     4.31530505    -0.20082839    -1.32857443
H     6.12807642     0.14392791     1.48619966
H     4.05664262     1.04437224     2.31516567
C    -1.44412394     2.78804766     0.98644261
C    -1.32951049     3.80601124     0.03644716
C    -2.66733976     2.51626816     1.60590696
C    -2.47200261     4.39491667    -0.49040353
H    -0.38098856     4.07061579    -0.40247948
C    -3.82154833     3.09169673     1.10019280
C    -3.68081691     3.93492317     0.00783466
H    -2.44216150     5.07169257    -1.33445274
H    -4.86296646     2.86791788     1.29035677
Cl     6.98966967    -0.79895478    -1.04827417
Cl    -5.10856369     4.74779494    -0.57816747
N     1.84251973     1.31508430     1.06550907
H     1.96165340     1.62913376     2.01573792
C     0.67549768     1.69549888     0.42195758
O     0.46566420     1.75827649    -0.76600842
N    -0.20653744     2.22149583     1.34585945
H    -0.08238029     1.88719041     2.28855396
H    -2.76819178     1.79508487     2.41036179
H     2.40462538     0.56725429    -1.63157721
Cl     4.38553679    -0.95956912    -2.88572871
