%nproc=8
%mem=4000MB
#opt=(noeigen,calcfc,ts,recalc=5,maxcyc=200) freq B3LYP/SVP em=GD3BJ

ts-563.gjf

0 2
C  -4.45580522222744  -0.73367186492473  1.63262970546922
C  -3.07942813073994  -0.93433268238748  1.91104595657968
C  -2.38701264486033  -1.63999777514219  0.90331861119896
C  -2.99956201375557  -1.81141378739317  -0.41262075703473
C  -4.37932198506942  -1.61423045315240  -0.63780651851672
C  -5.07766049552940  -0.98795326997260  0.39145649828075
H  -2.65528377386062  -0.41347742696841  2.73445473054122
H  -1.29052766585131  -1.79908631008318  0.86620583964225
C  0.66456219894695  -2.77294334772074  -3.30592551618542
C  1.07851011850576  -2.93712944652226  -4.62400757980000
C  1.52810467205512  -3.20131185566629  -2.31491961205305
C  2.28991501636640  -3.55152029278317  -4.85167441664035
H  0.37570938883261  -2.59470345124704  -5.38832329020704
C  2.91328597803420  -3.48671437814584  -2.39331253433424
C  2.98634291994881  -3.75122082989345  -3.68697454405186
H  2.65804885012559  -4.09113850224163  -5.71090716742256
H  3.65489697364181  -3.69353689361181  -1.65850497364426
Cl  -5.42254997965933  0.33265111974007  2.60445062627337
Cl  5.01685896700971  -1.92928853149333  -5.00093359058418
N  -2.17980744754648  -2.25785605206736  -1.40611438580134
H  -2.74138798458067  -2.69456746087217  -2.13381667565192
C  -0.90618767682914  -2.05684020248786  -1.69285476668292
O  -0.18373873814528  -1.41871496650268  -0.89440615818627
N  -0.60944853897399  -2.49293645771243  -2.87686697013673
H  1.18436244665480  -3.11598611009997  -1.24498026792356
H  -4.83540869775870  -1.79802144868798  -1.61489083729778
Cl  -6.77186658279949  -0.50554496523403  0.25273026332472

