70
 energy: -143.139800023932 gnorm: 0.120996281218 xtb: 6.6.1 (8d0f1dd)
O    -0.45350408    -1.49962866     0.11275518
H     0.01389524    -1.25365842    -0.68747887
H    -1.34111209    -1.26039208    -0.15974540
O    -4.21069646    -1.81910601    -1.84752053
H    -5.07248788    -1.64028061    -2.22788328
H    -3.72819062    -2.24513029    -2.55817481
O     0.25163688    -0.61762262     3.00270806
H     1.04243608    -0.71684906     3.53574591
H     0.20338938    -1.43190600     2.49877044
O    -2.71436223     0.20005664    -0.01158628
H    -3.25544172    -0.43483640    -0.48432595
H    -2.80087499     0.98867362    -0.55004452
O     0.28505855    -1.28028339    -4.16634445
H    -0.53017384    -0.79965198    -4.01230292
H     0.15656944    -2.20441535    -3.94541734
O     1.69331585    -2.87698547    -0.87707408
H     1.72943217    -1.98991165    -1.23919785
H     2.43907932    -3.46010064    -1.02923520
O    -0.91437415    -4.02997983    -1.15534722
H    -0.90809318    -3.23427989    -0.62040835
H    -1.02551242    -4.77585507    -0.56318424
O    -1.97027807     0.46175933     2.90699434
H    -2.31993573     0.00991815     2.13698315
H    -1.21843456    -0.05291766     3.20561692
O     1.27235542    -0.29725217    -2.06787851
H     1.14807996    -0.62399223    -2.96070276
H     0.98544495     0.61626970    -2.01789858
O    -1.81311597    -3.06721162    -3.41485658
H    -1.59414132    -3.45492378    -2.56569952
H    -1.60274662    -3.76074886    -4.04262178
O    -1.59982727     0.85563133    -2.49835598
Cl    -2.36567804     1.44225926    -3.90210186
H    -0.92343316     1.43103042    -2.12153599
O     1.54621535     1.30250718     3.93360833
Cl     2.55740088     2.42791163     4.71599781
H     0.70049103     1.66630731     3.64553380
O     0.79311145    -3.28918107     1.71320713
Cl     1.47776195    -4.83583131     1.91393220
H     0.96453584    -3.10558701     0.78181407
O    -1.10697507     2.39470248     5.99055403
Cl    -0.86438924     3.63619758     4.84993891
H    -1.50457639     1.63970680     5.54057316
C     4.83629326     0.09078161    -0.69329192
C     4.28714316    -0.71797026     0.29416797
C     3.02511956    -0.39957167     0.75850371
C     2.33895543     0.71435330     0.26328578
C     2.94399640     1.57150094    -0.65547360
C     4.19516408     1.23495101    -1.15917494
H     4.88116319    -1.57175175     0.59255074
H     2.71935058    -0.97653516     1.62430620
C    -1.98466162     2.91142190     0.80396103
C    -2.05816003     3.83178664    -0.24456375
C    -3.02675730     2.90831077     1.73556399
C    -3.14812003     4.68650239    -0.35000439
H    -1.19834693     3.96118772    -0.88201400
C    -4.04673701     3.84514536     1.70324278
C    -4.14240141     4.70061591     0.61553832
H    -3.23989537     5.36833093    -1.18548170
H    -4.76131965     3.91698986     2.51256414
Cl     6.49248406    -0.19101629    -1.12087868
Cl    -5.35121360     5.94700095     0.44845345
N     1.16327180     1.14032127     0.90035268
H     0.84853983     0.65823438     1.72757136
C     0.20819484     1.93035690     0.28028339
O     0.29525035     2.39115541    -0.83296428
N    -0.89256122     2.07471509     1.10232368
H    -1.15314164     1.40538138     1.80938682
H    -3.03974944     2.25331419     2.60056963
H     2.44244656     2.49219921    -0.90592797
Cl     4.98141493     2.23900401    -2.33349873
