70
 energy: -143.138810299973 gnorm: 0.095872868510 xtb: 6.6.1 (8d0f1dd)
O    -1.67111001    -1.96716242     2.06279339
H    -2.38049276    -1.90266387     2.70462987
H    -1.43691266    -2.88815402     1.93526000
O    -0.30138976     3.88076935    -2.15225773
H     0.00499176     3.58642410    -1.29270550
H     0.34214983     3.67902862    -2.83379684
O    -0.91338883    -1.70699294     4.92596484
H    -1.04685489    -0.90634577     4.41558308
H    -1.25009297    -1.42585237     5.77856596
O     0.97645272     1.53876809     2.90331754
H     1.48098360     2.15649778     2.37115441
H     1.60244897     1.14216266     3.51173458
O    -2.50482958    -1.31052013    -1.31933339
H    -1.57996394    -1.54435309    -1.22297523
H    -2.45585079    -0.49031728    -1.81350591
O    -0.00843809    -2.60335229    -1.22575036
H     0.55517404    -2.34938536    -1.95867611
H    -0.34020398    -3.49813966    -1.31862886
O    -4.28546961    -2.42434159     0.49373583
H    -3.47580307    -2.14036751     0.06579160
H    -4.75929084    -2.93188261    -0.16750100
O     2.09128104    -2.52579946    -3.38890320
H     1.84221134    -1.67991648    -3.76544596
H     3.04524091    -2.58061560    -3.30957943
O     2.45512249     3.04335999    -3.21154927
H     2.21746942     2.17000385    -3.52794881
H     2.86220895     3.54097726    -3.92288286
O     0.47908920     0.07809262    -3.35764677
H     0.63875203     0.24114842    -2.42637940
H    -0.45368550     0.06170015    -3.57900831
O    -2.70603496     2.09504332    -2.92765180
Cl    -4.29701565     2.62511891    -3.22591770
H    -2.11420365     2.85135160    -2.83643833
O     3.68890008     4.14284390    -0.80826559
Cl     3.16366983     3.40126978     0.63234736
H     3.12480319     3.80230060    -1.51283074
O     1.61830801    -2.28297448     3.90891224
Cl     2.45506161    -0.80407247     4.02662410
H     0.86429982    -2.12605024     4.48980169
O    -1.15694673     0.90925146     4.34875237
Cl    -2.47592258     1.98499024     4.41394136
H    -0.48236299     1.31752807     3.79302306
C     4.45544110    -1.69994154    -0.35449112
C     3.73370075    -2.38186231     0.61751578
C     2.41843127    -2.01965478     0.83788104
C     1.82438401    -0.92979871     0.19273571
C     2.63084379    -0.06847654    -0.55066342
C     3.88848440    -0.54979612    -0.89573308
H     4.16182748    -3.15344936     1.24377118
H     1.82560869    -2.53534920     1.58528733
C    -2.27588686     1.81136926     0.82999379
C    -1.67809256     3.07005237     0.72881860
C    -3.64627921     1.73563980     1.09484691
C    -2.45231601     4.21879373     0.83197374
H    -0.60825030     3.17307310     0.64402263
C    -4.41979715     2.88422433     1.13339582
C    -3.82902922     4.12776576     0.96404239
H    -2.04393496     5.21344297     0.70855146
H    -5.50119621     2.85450489     1.11139729
Cl     6.11166948    -2.07456354    -0.70345301
Cl    -4.80132369     5.57322885     1.05292384
N     0.54345130    -0.61561321     0.67235425
H     0.07542114    -1.21930902     1.32981445
C    -0.21678450     0.48125365     0.29853750
O     0.16909055     1.23143164    -0.56608256
N    -1.42552819     0.69415331     0.93246652
H    -1.82871291    -0.09740017     1.40863171
H    -4.07276710     0.75048362     1.25295923
H     2.32623739     0.88164752    -0.95863913
Cl     4.86158530     0.49898624    -1.87475271
