70
 energy: -143.136257116415 gnorm: 0.115461718680 xtb: 6.6.1 (8d0f1dd)
O     1.30276081    -2.81735460     0.18119895
H     0.70807702    -3.50036087    -0.13374810
H     1.82002478    -2.58476686    -0.59189846
O    -1.39248462     0.26905062    -2.77735603
H    -1.03738938    -0.02664567    -1.93723111
H    -0.70352657     0.30864875    -3.44301875
O    -0.92280806     0.82515863     3.11980789
H    -1.78857733     0.41347236     3.13702986
H    -0.32025799     0.09375506     3.26582362
O    -3.34518733    -0.42051631     3.79785900
H    -4.21566049    -0.12345775     4.06873104
H    -3.55546244    -0.46236648     2.86331558
O     2.01881334    -1.93874632    -2.41864975
H     2.02650408    -2.52718786    -3.17562834
H     2.40823569    -1.13407318    -2.76533330
O    -2.29973017    -2.73801803    -2.37594130
H    -2.68323547    -2.73930337    -3.25472456
H    -2.98000699    -3.11803570    -1.81723791
O    -0.83652479    -1.10325659    -0.74854383
H     0.08899898    -1.33758338    -0.83705449
H    -1.28217380    -1.72392472    -1.32777317
O    -5.19126646    -1.89981832    -2.57405527
H    -5.62138861    -1.93803948    -1.71797568
H    -5.12208695    -0.94667410    -2.65194491
O     1.67534637     0.78005574    -3.45442328
H     1.50827355     1.14844172    -2.58510341
H     1.35987840     1.26749712    -4.21745583
O    -2.94859610    -0.42758872     1.18886197
H    -3.67995828    -0.01131190     0.72933905
H    -2.24690329    -0.52535642     0.54279156
O    -3.67508732     0.34458577    -1.48127437
Cl    -4.69755953     1.57581713    -2.06418271
H    -2.81608835     0.51422638    -1.88615613
O     1.90226428     0.83565053     4.07253116
Cl     3.60273885     0.91432379     4.01455326
H     1.65077922     1.50942843     4.71546639
O     0.39247109    -1.59888065     2.73047803
Cl     1.24589065    -2.85816774     3.49666005
H    -0.34856301    -2.07919232     2.34220585
O    -1.27564304     3.15129566     4.31982430
Cl    -0.29606636     3.53175173     5.66028823
H    -1.03986342     2.31037228     3.91013673
C     5.40263670    -0.30775077    -0.19605789
C     4.72053341    -0.85776465     0.88234025
C     3.43351588    -0.44359644     1.16824168
C     2.78426381     0.50183071     0.36728583
C     3.49079916     1.06647848    -0.69425851
C     4.75869123     0.60404307    -1.02743253
H     5.16849969    -1.59871672     1.53130190
H     2.98218503    -0.91256956     2.03562870
C    -1.58813751     2.79881833    -0.10724686
C    -1.82000142     3.04130967    -1.46346021
C    -2.54802438     3.35694321     0.74185329
C    -2.85895135     3.85048811    -1.90559469
H    -1.10323899     2.58389302    -2.12632345
C    -3.67171740     4.06168437     0.34220808
C    -3.73836502     4.41771768    -0.99677697
H    -2.98158377     4.02436050    -2.96675674
H    -4.33430618     4.52401752     1.06194084
Cl     6.87838264    -1.01168547    -0.77212953
Cl    -5.12881772     5.28649506    -1.59216517
N     1.51370434     0.99093017     0.70786698
H     1.13079879     0.50735300     1.50491858
C     0.61991745     1.65430943    -0.11789769
O     0.90823710     2.07152351    -1.21427290
N    -0.62367242     1.92021875     0.42157430
H    -0.82846472     1.57274891     1.34524791
H    -2.40116962     3.31042440     1.81595466
H     2.97885889     1.88789800    -1.16876056
Cl     5.58700561     1.39934114    -2.32618028
