%nproc=8
%mem=4000MB
#opt=(noeigen,calcfc,ts,recalc=5,maxcyc=200) freq B3LYP/SVP em=GD3BJ

ts-5687.gjf

0 2
H  -2.90665479548170  1.93324995029178  -0.12808896845345
O  0.21380593513409  4.09461406015860  -3.53746599678326
H  -0.58767250195302  4.45154156353031  -4.02446548954426
O  -2.22150347195913  0.11614388321241  -2.63424775434296
Cl  -3.16880217019459  1.33992761471678  -4.70637543446874
C  -2.13745634711124  1.97333940065252  -2.30788672087582
C  -3.47318675404236  2.12433299150704  -3.10017300151606
C  -2.13169205943739  1.39037638793832  -0.78452350600328
C  -4.64304769668878  1.61298590719205  -2.31293523756852
H  -3.60617472160677  3.12905771202874  -3.47205518846682
C  -2.76557157581165  0.19394731873724  -1.43698247775894
C  -4.26317306638958  0.39727969784893  -1.80695798411078
H  -5.52781319051170  1.97345944675301  -2.81774104994898
H  -2.50397500042390  -0.59906669113478  -0.73011772996740
Cl  -5.34202978851365  -0.79574211013512  -1.40436012611523
C  -0.03763920674419  2.87513260233790  -3.10628445329872
O  0.61295862780728  1.87268735206400  -3.09681889280582
N  -1.37703065385790  2.79018514672504  -2.95193605674163
H  -1.01481313983460  1.21125795713546  -0.34870432418267

