%nproc=8
%mem=4000MB
#opt=(noeigen,calcfc,ts,recalc=5,maxcyc=200) freq B3LYP/SVP em=GD3BJ

ts-5707.gjf

0 2
H  -3.03351592456518  2.27719684862438  -0.34630008675955
O  0.75877432328652  3.35010825810826  -3.43376989080542
H  0.49567089143232  3.90733974559886  -2.63445357797469
O  -2.41487202641906  -0.55518406071070  -1.63867059693248
Cl  -2.65413990079629  1.47712674714929  -4.93037618911586
C  -2.40942638145549  2.28993277470209  -2.61405175134369
C  -3.64886794174361  2.45776276140505  -3.48431277052264
C  -2.56360073598548  1.70981816056241  -1.18580614168078
C  -4.70550963329707  1.61435309798760  -2.98744544824574
H  -3.88026276045324  3.44099841487156  -3.86188677295601
C  -3.35030527096631  0.35326890409583  -1.21114877546860
C  -4.54626282843236  0.75471723723068  -1.96871816216357
H  -5.74139363142503  1.80090089441227  -3.21746439764267
H  -3.62401923780843  0.14697873613179  -0.04855843554760
Cl  -5.87495158642178  -0.38644186978704  -1.63178804029378
C  -0.18272201449643  2.45681194008825  -3.77788644484513
O  0.08756758861556  1.74771004162495  -4.69205993095798
N  -1.26718418223827  2.64122824458121  -3.01399860099767
H  -1.68534662325186  1.32180914967007  -0.87412334161832

