%nproc=8
%mem=4000MB
#opt=(noeigen,calcfc,ts,recalc=5,maxcyc=200) freq B3LYP/SVP em=GD3BJ

ts-342.gjf

0 2
O  -2.45555937795835  -2.35896409056488  -0.17794836475186
H  -3.10220982038289  -2.88852316506286  -0.64982052078909
C  -5.91359280193816  0.25172932465122  2.53578105517033
C  -5.08492458456049  -0.47606820300787  1.72143994909577
C  -3.85137426962151  -0.97290347600361  2.18031708968848
C  -3.35570820002797  -0.87576973542853  3.48764749020306
C  -4.35019590924423  -0.44247685579874  4.42040123773497
C  -5.47711212872657  0.23246884659196  3.96272044374941
H  -5.39176857868773  -0.67248581720914  0.73549697908963
H  -3.29507240944070  -1.50631244320849  1.40190756263553
C  0.04870807743540  -1.70963949849888  1.34894382979014
C  0.38689240799521  -0.96336528744885  0.25647713332424
C  0.45404865344588  -3.05615524217595  1.38214434586163
C  1.18840507013245  -1.45182540480935  -0.74672136990717
H  -0.05904969404585  -0.01843805206586  0.03683594563472
C  1.31840089363214  -3.55421015388826  0.43618458191533
C  1.76033253680406  -2.72014495474889  -0.62631910567289
H  1.62327408317331  -0.82756356572376  -1.55013937179907
H  1.64383813977856  -4.60185679587678  0.49141918263787
Cl  -7.39930444960476  0.95517833933089  2.17572056295169
Cl  3.09375921234956  -3.43563674114798  -1.70638425397937
N  -2.11211776664828  -0.96460163065045  4.07631361203824
H  -1.99851832804882  -1.07711476418507  5.08548723268351
C  -0.86844345878838  -1.09696000000839  3.50779762542798
O  0.12872923639989  -1.03505015124172  4.19394717702175
N  -0.94005651073593  -1.24866943364602  2.16966826490296
H  -1.59902152219011  -0.66110778441391  1.61800861408860
H  0.17302930545442  -3.68292726508698  2.25961500793431
H  -4.12295869026753  -0.43631165454887  5.44651920575841
Cl  -6.53436439318169  0.61655754516091  5.25601537048948

