%nproc=8
%mem=4000MB
#opt=(noeigen,calcfc,ts,recalc=5,maxcyc=200) freq B3LYP/SVP em=GD3BJ

ts-2138.gjf

0 2
O  -1.10689480280548  -1.79586619381919  -6.81904309384176
Cl  0.09581456514383  -2.85166333952473  -6.51010144154500
C  2.80376019992538  -1.83030100485324  -3.20908042962315
C  2.18243953808904  -2.05507652425189  -1.88820465056314
C  0.96418777645692  -1.42686070988541  -1.58918924717368
C  0.34801716789756  -0.64247374608326  -2.68353542439736
C  1.05593247713324  -0.26020781785837  -3.88499522546102
C  2.25114606855298  -0.90971276401409  -4.09583229206803
H  2.65728321534252  -2.87061819047116  -1.29868203161029
H  0.45639077160631  -1.57913588312682  -0.61078329379185
Cl  4.20487035570694  -2.98532382579774  -3.17722806590429
N  -0.95198991150513  -0.44958712940607  -2.51207337011159
C  -2.01786100039495  -0.97634114289106  -2.51838403951411
O  -2.88033738872527  -1.70434503016237  -2.42236391278001
H  0.53888741656079  0.21194096121951  -4.69451307753418
Cl  3.19575564304965  -0.36262099166613  -5.31981374853036

