%nproc=8
%mem=4000MB
#opt=(noeigen,calcfc,ts,recalc=5,maxcyc=200) freq B3LYP/SVP em=GD3BJ

ts-2148.gjf

0 2
O  -0.85116007087111  -1.68129155632828  -6.35443475175177
Cl  0.02207698737494  -2.91309971177982  -6.24573349096258
C  2.92617102310189  -1.95756072706303  -3.02649702353214
C  2.09579999047367  -2.58802183997815  -2.05456408006878
C  0.85145977026750  -2.03697623979528  -1.84474936424528
C  0.60096034720086  -0.79261817501891  -2.49541687672733
C  1.38235542973820  -0.26764276655836  -3.57098002270577
C  2.55902125328355  -0.88109666811899  -3.85522837867207
H  2.56691866774237  -3.35216674647260  -1.54943719557555
H  0.04104941396195  -2.58062299991223  -1.44760579895786
Cl  4.36999506212682  -2.82729890474410  -3.57123554707682
N  -0.56641321923925  -0.29685661724763  -2.18584599053584
C  -1.77735202549689  -0.36754865600465  -2.16411062065356
O  -2.93540427339866  -0.59362341356027  -2.04059640004561
H  0.79850245629100  0.57841764723028  -3.84560436143820
Cl  3.39627858446629  -0.61680505520557  -5.42597810952757

