%nproc=8
%mem=4000MB
#opt=(noeigen,calcfc,ts,recalc=5,maxcyc=200) freq B3LYP/SVP em=GD3BJ

ts-2168.gjf

0 2
O  -0.23865675368612  -1.40740612379713  -5.07570108071102
Cl  -0.12386366896769  -2.98058171444623  -5.66714890355850
C  2.87579196009909  -2.27007666545582  -3.60289038007358
C  2.24679082425150  -3.01763900826290  -2.59388525556704
C  0.91990875768714  -2.42315850204489  -2.23535981831703
C  0.45875312596463  -1.30361182004546  -2.81303590089828
C  1.08634690397654  -0.68699208316725  -3.97868263104662
C  2.41126254908905  -1.06935447524613  -4.16280545193770
H  2.41517249271995  -4.00720676801262  -2.15477750363303
H  0.46417563620635  -2.69872569763097  -1.28220041332606
Cl  4.36389093972230  -3.07955325992599  -3.71333875442595
N  -0.49763360921629  -0.67912528709572  -2.09686182024317
C  -1.00881741858932  0.34690647265306  -1.80661803792535
O  -1.36373396807533  1.37332505806040  -1.49185364813150
H  0.79164759205843  0.31106451286314  -4.25709369941502
Cl  3.41522377131631  -0.27478059718573  -5.19833787831958

