%nproc=8
%mem=4000MB
#opt=(noeigen,calcfc,ts,recalc=5,maxcyc=200) freq B3LYP/SVP em=GD3BJ

ts-2198.gjf

0 2
O  -0.26281213784452  -1.43465963458307  -4.45990810413814
Cl  -0.08598578712354  -2.92044406311119  -5.37104348838543
C  2.50386579100543  -2.50427732451873  -3.84305853328024
C  1.76809921247592  -3.17426835465017  -2.93650588975608
C  1.03904369140696  -2.38050816137611  -1.91221518712948
C  0.81858968908579  -0.96378501503521  -2.21753132821846
C  0.81691140145724  -0.76906546359640  -3.64468607357547
C  2.21154607028128  -1.11882560303825  -4.10199619668461
H  1.86410027655382  -4.28254942347437  -2.81466963177118
H  0.70816570324265  -2.70211806814668  -0.91568295502176
Cl  3.90412652406773  -3.19996128764126  -4.27700451982493
N  0.51616984931656  0.06980480818364  -1.43378365160076
C  0.87792722441082  1.20197925581340  -1.53401655803336
O  0.97121564903019  2.34632577563550  -1.36107868696583
H  0.61907630741089  0.24057738039608  -3.99377677499011
Cl  3.36706599884163  -0.18623997167688  -5.09975907101159

