%nproc=8
%mem=4000MB
#opt=(noeigen,calcfc,ts,recalc=5,maxcyc=200) freq B3LYP/SVP em=GD3BJ

ts-3276.gjf

0 2
O  -2.92570641934923  2.47974643215195  -3.25357328786719
H  -3.23829302945383  1.59215416153933  -3.09088651505176
O  0.24603629818333  1.77226918033513  -5.58840036317684
Cl  -0.98928264646409  1.13661021544856  -4.51463488182470
C  -2.37074395138998  4.72802508912168  -2.70057286606349
C  -2.88156378942956  3.37760894324300  -2.04949847008399
C  -1.80993834482992  2.74866000325355  -1.19990073474368
C  -0.48137802877577  2.56131535929932  -1.54161633551617
C  -0.12716045037196  3.49461172059260  -2.59270182423911
C  -0.97266619287344  4.65786091869226  -2.84941544104520
H  -3.80587434124125  3.71428071335381  -1.54230868003370
H  -2.21124305398428  1.95848317509335  -0.51337484015883
C  3.46287338341026  0.65862804769965  0.03839057074227
C  3.71783140625135  0.93839360654784  1.55944849919562
C  4.48367854974104  -0.30709711196501  -0.54147712565647
C  4.05044906516647  -0.21693532340367  2.31247395920865
H  3.07922534262709  1.67933246352497  2.08622392629285
C  5.18690174081310  -1.11996199151294  0.32138428392588
C  4.81101128486459  -1.25845108187705  1.70184703042873
H  3.82675040151135  -0.27421074855514  3.37478908937177
H  5.92769887171994  -1.83178537087548  -0.02389989575550
Cl  -3.71734702879580  5.42721735699593  -3.54591879444176
Cl  5.55001358135545  -2.42418800539307  2.74933303958072
N  0.32101698870328  1.72802327825486  -1.05047513734748
C  1.74793212892038  1.92860896266643  -1.32175379268871
O  2.28585277268127  2.93583932355387  -1.84528013808839
N  2.51090962105707  1.06344440621602  -0.70553356525673
H  0.15465456591539  1.56143971533544  -6.55624774992701
H  4.55851566464086  -0.42104834378397  -1.60576459882332
H  0.94254039233638  3.70918719292331  -2.56546632507554
Cl  -0.01169063150534  6.12648836556173  -3.05965667976452

