%nproc=8
%mem=4000MB
#opt=(noeigen,calcfc,ts,recalc=5,maxcyc=200) freq B3LYP/SVP em=GD3BJ

ts-3326.gjf

0 2
O  -2.94713048462952  2.04220500842356  -3.03483163822696
H  -2.61456804706090  1.22276569493743  -3.41845854804239
O  0.33683066914124  0.30187127956100  -6.81700150217026
Cl  0.28795144392932  1.93981257806322  -3.49525175259654
C  -1.65125235324283  4.19173096612941  -2.64250569230238
C  -2.02058068989097  2.66081241689896  -2.18590363189710
C  -0.69099321924948  2.00381479596195  -1.93747007708608
C  0.30752995405846  2.78498844148092  -1.10734029947226
C  0.39908545277920  4.17521239214853  -1.41378940033422
C  -0.39600353362425  4.79181020297283  -2.43610873891125
H  -2.29608944387720  2.83813994226329  -1.13359176163023
H  -0.62765528425355  0.99570422446630  -1.46979884692368
C  3.11426953668271  -0.10982106452574  0.33933630833545
C  3.51025319347500  -0.80362734385784  1.59755652849091
C  3.15118391775099  -0.94430556367302  -0.86296766270943
C  4.19809951822778  -1.95469918016495  1.50688516394239
H  3.35128298610045  -0.22830796526652  2.49934032595022
C  3.55335436113133  -2.31851646175248  -0.80969552820889
C  4.11072649911990  -2.77395939752905  0.38648456991757
H  4.81619712315281  -2.36610039392030  2.35459542204108
H  3.50863972890493  -3.09199778975672  -1.56574152369320
Cl  -2.81871235970999  4.54699892695572  -3.78862357068817
Cl  4.81303590623314  -4.29821492774516  0.59140507057145
N  1.13587783863544  2.03506591957719  -0.53993868596868
C  2.40416994333442  2.25866027626927  0.17082403898420
O  3.05675130079723  3.27381978832233  0.19387106392264
N  2.82312557488991  1.16055490876205  0.62951680942800
H  1.23380637997714  0.69358481869674  -6.82262981785520
H  3.21322145358586  -0.63801190643647  -1.91040586165870
H  1.43287029288099  4.42247896324371  -1.29191213375168
Cl  -0.27857938109061  6.44732521404374  -2.92434010627451

