%nproc=8
%mem=4000MB
#opt=(noeigen,calcfc,ts,recalc=5,maxcyc=200) freq B3LYP/SVP em=GD3BJ

ts-3336.gjf

0 2
O  -2.72232658066749  1.89372798243673  -3.06260941484388
H  -3.36238554026190  1.49366387332967  -2.43025864290182
O  0.29923565671582  -0.11787541279942  -6.86252770913695
Cl  0.65403679801831  1.54904200582857  -3.53416050014692
C  -1.69300443970360  4.05100104062167  -2.47794697855371
C  -1.84215482092321  2.61411003214784  -2.23514836313585
C  -0.44785270080218  1.90805565085555  -1.98868089664458
C  0.39715034870492  2.78027656809818  -0.91268160515619
C  0.42020702750637  4.21228601119517  -1.09560005445218
C  -0.53360389612912  4.57702901724368  -1.98869652896984
H  -2.05273394554961  2.55554420559337  -1.16965521975460
H  -0.81322683634305  0.92143539130309  -1.72177908620293
C  3.21155696188780  -0.28559370415324  0.47655958533431
C  4.20685500148674  -0.97373372025173  1.27992578101286
C  2.90404753205432  -0.93110961494169  -0.74887371876927
C  4.74785925890622  -2.19228046252159  0.99296851821882
H  4.40117065863277  -0.35200348464528  2.10693946461177
C  3.33539555927073  -2.20962996412892  -1.12527562403335
C  4.17709434562217  -2.88072806200765  -0.03409986533546
H  5.35546082734087  -2.65300400742640  1.71086368010051
H  3.22569560622300  -2.64005876040142  -2.10418179026644
Cl  -2.62509912756910  4.77823555862646  -3.74872536867758
Cl  4.69964968212223  -4.62161382597297  -0.11635279752972
N  1.04616821415540  1.96637292655430  -0.24351461825146
C  2.29836876890030  2.23641987983683  0.27556409130350
O  2.82715172921556  3.39970579439917  0.41153330197913
N  3.06998957084691  1.11285865845360  0.51214863942141
H  -0.13650421049204  0.66923961698459  -6.57141363712512
H  2.19017674405103  -0.37434252471985  -1.34976039274780
H  1.29891512862512  4.80678109931411  -0.84074548827417
Cl  -0.43767844180777  6.19186138604854  -2.76590504762733

