70
 energy: -143.145483925833 gnorm: 0.105905908914 xtb: 6.6.1 (8d0f1dd)
O     0.06128042    -0.66874811     1.38165602
H    -0.22220383    -0.85034602     0.48388272
H     0.89477915    -1.07364726     1.62797948
O    -1.43247867     1.46127850     2.57776763
H    -1.48365118     2.17598790     3.21487880
H    -2.24787696     0.99748287     2.37938083
O    -1.73176393    -2.53843355    -0.05674819
H    -1.29982385    -2.78947357    -0.87512786
H    -1.44355870    -3.19839621     0.57628055
O     0.37695598    -1.21069629    -1.58002455
H     0.68399199    -1.97861377    -2.06517463
H     0.70012429    -0.41465576    -2.00572419
O    -2.27305842    -1.28398809     2.59537210
H    -2.58090263    -1.70983173     1.79335693
H    -1.47275171    -0.86362741     2.27577206
O    -0.01345071    -2.29115001    -4.39442276
H    -0.18613182    -1.36075559    -4.23987361
H     0.65953309    -2.18432817    -5.06897546
O    -0.36418299    -4.18883958    -2.10460067
H    -0.65045952    -3.76782130    -2.91708255
H     0.16247146    -4.95489316    -2.33941039
O     0.79179656     0.31693388     3.96005153
H     0.71313916    -0.60718501     4.20327048
H     0.08937788     0.46251937     3.32385238
O     0.80036476     0.79604090    -3.82993886
H     1.36823789     1.38441974    -3.32927027
H    -0.07036911     1.17502913    -3.69754450
O    -1.92622762     0.71521639    -3.27155864
H    -2.33134704     0.11387326    -3.89893654
H    -2.06112185     0.37204384    -2.38647421
O    -2.45784166     0.09265397    -0.37656372
Cl    -4.10156310    -0.12172341    -0.76820692
H    -2.03025600    -0.77203979    -0.38441311
O     0.50494233     3.35832531     4.05264768
Cl     0.40206784     5.03936390     4.30699144
H     1.08556455     2.88839367     4.66308130
O     2.49674493    -2.78847788     1.65368777
Cl     2.55871786    -2.49534236    -0.02303366
H     2.46937350    -3.74735871     1.75559210
O    -4.15822168     0.53374789     3.42561203
Cl    -3.90485432     1.14044148     4.99688181
H    -3.58057296    -0.22337282     3.27173465
C     5.16510602    -0.43830120     1.16105797
C     4.67116401     0.16449995     2.31143813
C     3.50690573     0.90246049     2.21342888
C     2.95645422     1.17438647     0.95646817
C     3.56146061     0.70408616    -0.20872723
C     4.65714379    -0.14461123    -0.10105842
H     5.17606328    -0.11176779     3.22772834
H     3.09580750     1.37356680     3.09946081
C    -1.25742108     3.16798378    -0.52353623
C    -0.81069381     3.86160610    -1.65101141
C    -2.56175582     3.30074266    -0.03882692
C    -1.68218125     4.63103301    -2.41138067
H     0.23323205     3.78740133    -1.91000655
C    -3.35723951     4.19764345    -0.73297171
C    -2.95032442     4.84059483    -1.89276315
H    -1.31307067     5.01373522    -3.35405326
H    -4.33677253     4.42031775    -0.33082462
Cl     6.56440684    -1.45273390     1.29556435
Cl    -4.10493314     5.78685188    -2.79503595
N     1.73015886     1.85667165     0.94158199
H     1.24546465     1.73543737     1.81686966
C     0.97652180     2.08051268    -0.19979462
O     1.43214078     2.00353080    -1.31591264
N    -0.28690811     2.45983069     0.21022506
H    -0.63210187     2.10555576     1.08839281
H    -2.80115846     2.79413018     0.89039546
H     3.20193087     0.91974358    -1.20180083
Cl     5.19738237    -0.97479616    -1.52383192
