%nproc=8
%mem=4000MB
#opt=(noeigen,calcfc,ts,recalc=5,maxcyc=200) freq B3LYP/SVP em=GD3BJ

ts-2739.gjf

0 2
C  -1.21182843988562  -2.15688214282073  -6.02910034841764
C  -2.05656241064127  -1.74868267993843  -5.05238880139524
C  -1.78776059135259  -0.79303869781337  -4.09994157769474
C  -0.59755805103140  -0.05080558121512  -3.96519148841514
C  0.31177422716891  -0.36619252287418  -4.96742930633619
C  0.04809485882033  -1.51344630450768  -5.82836510642769
H  -2.95296378255358  -2.33690637701496  -4.97823783408531
H  -2.40344932447269  -0.86237397375194  -3.17689231389943
C  0.12652407351268  -2.17894045533935  -0.43623189593724
C  0.12471122551386  -3.55204378454532  -0.16374148847219
C  -1.24135470676640  -1.79543877591584  -0.61602739823353
C  -0.86825050953106  -4.51020841015891  -0.20207414624495
H  1.13109294201342  -3.89168716609920  0.04768091483591
C  -2.34317744782613  -2.64995978215454  -0.76806844844872
C  -2.20603217468277  -4.01041887804127  -0.56808073167490
H  -0.66317372465810  -5.51230958319515  -0.03763390622548
H  -3.20566302761901  -2.14377936556058  -1.26178909153986
Cl  -1.65554719115779  -3.14887137503414  -7.42867660245551
Cl  -3.66428230340035  -4.88457208293520  -0.33533670195805
N  -0.21582147663795  0.34424115330834  -2.73104183211326
H  0.38416297941136  1.14760962226405  -2.63100173671545
C  1.25862033617838  -0.54918460185330  -1.74015334955182
O  2.20279467209085  -0.10564430229946  -2.33303073036640
N  0.94526845346261  -1.19020506440321  -0.77839708580134
H  -1.64998583304325  -0.75394138971558  -0.62564961091258
H  1.23301645480681  0.19128432228550  -5.01649191548257
Cl  1.36875733146321  -1.97790901689357  -6.76191008424705

