%nproc=8
%mem=4000MB
#opt=(noeigen,calcfc,ts,recalc=5,maxcyc=200) freq B3LYP/SVP em=GD3BJ

ts-2759.gjf

0 2
C  -0.91954393346457  -2.26406768821950  -6.01914284967934
C  -2.03882077661569  -2.03606529424843  -5.24236724993361
C  -1.90495730710689  -1.20188446273305  -4.15045896414859
C  -0.68573892033755  -0.45856103702586  -3.80321774605195
C  0.51940617172462  -0.71606071177645  -4.60352204164755
C  0.33233003072502  -1.59880987008688  -5.69580869118545
H  -3.02885783329768  -2.28672802088731  -5.62349697871417
H  -2.74440684565158  -0.87145293654007  -3.54644454715718
C  -0.20581651876305  -2.29379386494941  -0.63045140731039
C  -0.21418190604966  -3.59745622403573  -0.34004841497638
C  -1.38702932851528  -1.72974042587353  -0.19501474797150
C  -1.37993889757110  -4.31316138386105  -0.11238747508542
H  0.79854490700780  -4.03752777222865  -0.23385167276361
C  -2.63727846430424  -2.34376703204589  -0.18467786041843
C  -2.56602742631302  -3.73110756621163  -0.15345664304001
H  -1.17008398079242  -5.32200152049995  0.29740198904489
H  -3.51913538080189  -1.76729992872637  0.17334410158432
Cl  -1.17718355675024  -2.54471005829963  -7.81967714108500
Cl  -4.01692636997781  -4.71001810411220  0.08470222022695
N  -0.95137441746546  0.52174659727521  -3.02351100506778
H  -0.35447023951718  1.33013656340619  -2.96610605544139
C  2.03051212958082  -1.77407827092307  -1.68011597648853
O  2.96836607695886  -1.59561443917026  -2.28744811036240
N  0.92432970472555  -1.61932019875316  -1.11554990551459
H  -1.32129645076436  -0.68353831548912  -0.10745680173147
H  1.60110445415438  -0.55922344684649  -4.48752736400891
Cl  1.55115694292795  -1.81705309153882  -6.88106364504692

