70
 energy: -143.149309428590 gnorm: 0.093662834152 xtb: 6.6.1 (8d0f1dd)
O     0.52168502    -0.62777907     2.31416325
H     0.26590254     0.29622311     2.30261754
H     0.51622848    -0.90120173     1.39516980
O    -2.04825143    -0.63159814    -2.48656418
H    -2.15624314    -1.57189565    -2.33321106
H    -2.79399890    -0.28246042    -1.99533955
O    -0.32173476    -3.15463672     2.99653050
H     0.24048467    -2.37880304     2.96006091
H     0.37621428    -3.80765568     2.92055858
O    -1.85094888    -0.29488192     0.80309114
H    -1.21045335     0.14948250     0.24483967
H    -2.70159879    -0.29051626     0.36069524
O    -4.27959225     0.29004650    -1.07546110
H    -4.60237135     0.65730529    -0.25067396
H    -5.01302508     0.43957733    -1.67467302
O     1.04739654    -1.27065225    -0.27053296
H     1.30331647    -0.57758344    -0.88167827
H     0.24453780    -1.70576374    -0.56282611
O    -2.73913348    -2.66219037     1.91339674
H    -1.93110999    -2.95696185     2.33712456
H    -2.95838697    -1.88221253     2.42613553
O     0.82619968    -0.40712367     5.05031180
H     0.66757559    -0.72828265     4.16091117
H     0.26456325    -0.91287514     5.64032578
O     0.91768547     0.37868441    -2.93168503
H     0.80724503     1.03195615    -3.62477777
H     0.07239659    -0.03149309    -2.74042881
O    -1.27363736    -2.97590750    -0.40410586
H    -0.81995051    -3.81611231    -0.31714353
H    -1.70396143    -2.84124324     0.44207676
O    -2.06350947     1.50337637    -4.48195671
Cl    -3.63074037     2.11672379    -4.74416749
H    -2.12982275     0.70143506    -3.94990494
O     1.29116392     2.14802763     4.11412833
Cl     0.19656067     3.37965297     4.54553003
H     1.10891280     1.35412840     4.63094129
O     2.41518299    -3.01578450     1.36706962
Cl     3.80153798    -3.67858663     0.63230640
H     2.04206831    -2.39098300     0.73382823
O    -3.21283804     1.12788022     3.42425190
Cl    -2.17744729     0.79920637     4.73615904
H    -2.59156496     1.28682766     2.70359695
C     5.13119400    -0.17891061    -0.45004044
C     4.80188683    -0.33274603     0.89108369
C     3.70832584     0.31418200     1.43449642
C     3.10165143     1.30942200     0.66097568
C     3.47274901     1.54081453    -0.66327488
C     4.46800827     0.75810703    -1.23706004
H     5.33478269    -1.10688497     1.42733530
H     3.35318958     0.01720328     2.41514791
C    -1.22356678     3.47986379     0.57495182
C    -1.68194749     3.11402168    -0.69308767
C    -1.99711080     4.32770154     1.37286030
C    -2.89057424     3.61752925    -1.15716853
H    -1.12685076     2.35914717    -1.22637757
C    -3.22671263     4.77308659     0.91594254
C    -3.67094103     4.43380424    -0.35355781
H    -3.16255997     3.29209960    -2.15288662
H    -3.79488949     5.42728187     1.56401248
Cl     6.49223660    -1.04348000    -1.08666534
Cl    -5.18886640     5.10098297    -0.89521732
N     1.94422290     1.89458569     1.19714510
H     2.02775887     2.09303677     2.18172300
C     0.79482742     2.08437390     0.44635574
O     0.63016153     1.63883799    -0.66432748
N    -0.05831710     2.92385287     1.13604619
H     0.39589522     3.40439410     1.89671652
H    -1.68311337     4.59773681     2.37581126
H     2.90285360     2.19490409    -1.30308033
Cl     4.92842469     0.83134883    -2.90679102
