70
 energy: -143.141531887326 gnorm: 0.103507420911 xtb: 6.6.1 (8d0f1dd)
O    -3.51004760    -0.46614655     2.20350553
H    -4.27820038     0.01236462     2.52021738
H    -3.81522721    -0.82927553     1.37023400
O    -5.27217043     1.07300832    -1.70781796
H    -5.48413905     0.89813788    -2.62641930
H    -5.47861214     1.99195521    -1.52821699
O    -0.93515271     0.52548067     2.80198399
H    -0.36515427    -0.08850559     2.33565656
H    -1.82014871     0.16376143     2.87464507
O    -4.94216239    -1.08761419    -0.06841486
H    -5.10381143    -0.37742620    -0.69198650
H    -4.59512083    -1.72232495    -0.69773423
O     0.54922090    -0.13451609    -2.91722543
H     0.64901619     0.26153546    -2.04974445
H     1.43025444    -0.47487924    -3.08236455
O     1.94832044    -2.28235649    -0.84815905
H     1.19093702    -2.75316411    -1.20036426
H     2.64865031    -2.37300617    -1.49674225
O    -0.21483395    -2.76827812    -2.45979716
H    -1.11022122    -3.08081813    -2.60099847
H    -0.19300790    -1.88691353    -2.83670387
O    -2.86686829    -3.84438216    -2.82792254
H    -3.28949717    -3.46707156    -3.60145968
H    -3.65278374    -4.05628720    -2.32119809
O    -1.85725986    -0.01050703    -0.29926792
H    -1.09027260     0.56410642    -0.32907609
H    -2.31373520    -0.05706264     0.54263507
O    -3.35675333    -0.34342816    -3.22021586
H    -3.39792404     0.60783812    -3.33306868
H    -2.61211636    -0.31737269    -2.61674656
O    -1.11811495     1.81811911    -4.09178837
Cl     0.27854557     2.67419565    -3.62527516
H    -0.83191185     0.90094641    -4.17820851
O     0.66035273     3.58987425     3.85811430
Cl     1.78073368     4.21196977     4.98012515
H     0.59813698     2.70987973     4.24840385
O     1.05584025    -1.03384132     1.35732709
Cl     1.63440828    -2.12666955     2.52871486
H     0.99590179    -1.53585605     0.53575864
O     0.53321285     0.92479531     5.01334092
Cl     2.22951755     0.78620441     5.08045078
H     0.11402621     0.51452097     4.24747827
C     4.83932037    -0.68518404     0.04170308
C     4.82770335    -0.14437256     1.32158997
C     3.80713195     0.71707244     1.67660467
C     2.97028243     1.21709927     0.67333656
C     3.07041933     0.82346262    -0.66079921
C     3.98549700    -0.18574162    -0.93745989
H     5.67610753    -0.34063618     1.96387169
H     3.67086822     0.97698246     2.72057519
C    -1.46531776     3.14509923     0.88387070
C    -1.89423780     3.09725633    -0.44489419
C    -2.41838060     3.25827334     1.90009903
C    -3.22704544     3.31970097    -0.76709243
H    -1.23515408     3.00811576    -1.29343920
C    -3.76022324     3.38394619     1.57958854
C    -4.16282106     3.39900276     0.25227139
H    -3.48450994     3.26038383    -1.81662981
H    -4.51547762     3.50857679     2.34434282
Cl     5.91878418    -1.96610293    -0.40462992
Cl    -5.80148240     3.80267816    -0.18869922
N     2.07447493     2.25302653     0.97979800
H     2.12276396     2.69442174     1.88455938
C     0.80985122     2.34362106     0.42003580
O     0.47977287     1.85649159    -0.63494642
N    -0.11493065     2.96352963     1.23780428
H     0.19022639     3.28769236     2.14204194
H    -2.15011386     3.22383055     2.95094189
H     2.45373149     1.22114196    -1.45042709
Cl     3.98050068    -0.85137793    -2.53816365
