%nproc=8
%mem=4000MB
#opt=(noeigen,calcfc,ts,recalc=5,maxcyc=200) freq B3LYP/SVP em=GD3BJ

ts-5182.gjf

0 1
Cl  1.63211087805565  -5.46913038094161  -2.04391369222143
O  5.50377231173188  -4.54454068068318  -3.66386733462345
C  1.46113740470756  -1.18268031775585  -1.00782098151954
C  2.75005112620703  -1.54487208331886  -1.12443817804978
C  2.96429808229549  -2.27346890810126  -2.39722180809214
C  4.11315154693553  -2.80819713388723  -3.00714657637544
C  1.83399013491438  -1.88403970580550  -3.08136518449501
C  0.76848434577121  -1.39508790229314  -2.27722691078852
H  3.51983816977603  -1.45968557532746  -0.38266723728656
Cl  0.71256815622056  -0.37478623376397  0.38117351980640
N  4.71925765215021  -3.70881061477780  -3.40238221962593
H  1.64162917100663  -2.10870496777035  -4.15120421571994
Cl  -0.72063922784180  -0.46593115349822  -2.41300455769279

