%nproc=8
%mem=4000MB
#opt=(noeigen,calcfc,ts,recalc=5,maxcyc=200) freq B3LYP/SVP em=GD3BJ

ts-5202.gjf

0 1
Cl  1.34270258523970  -5.84261021989835  -0.95964585356865
O  6.31778816751869  -3.89844472026071  -4.38261658190625
C  1.72652043940836  -1.60003917670424  -1.64735587289605
C  3.02017736929746  -2.00302112722349  -1.91325932230724
C  3.32585099261471  -1.88671281565069  -3.27167870158853
C  4.43328268021015  -2.60516004559474  -3.73314010810539
C  2.25636554717919  -1.07343508444917  -3.94456567625134
C  1.32118790059641  -0.95527238453568  -2.94259601914381
H  3.65800540653440  -2.57749564064483  -1.26253074971193
Cl  0.87519090295655  -1.64503982071079  -0.19782423859933
N  5.28704645113522  -3.31941531840879  -4.14320225376118
H  2.24759851123308  -0.85622751673035  -4.96007171617233
Cl  -0.31978601899634  -0.58773787784497  -3.35052984991564

