%nproc=8
%mem=4000MB
#opt=(noeigen,calcfc,ts,recalc=5,maxcyc=200) freq B3LYP/SVP em=GD3BJ

ts-5244.gjf

0 2
O  -0.63589952814856  -0.91479364844892  2.98774332146126
O  -1.12196508189346  3.70014749591696  1.52540027268296
H  -0.99185571885099  3.67618633660065  0.54501856016600
C  -2.95730133202334  1.84641173470143  2.01862480707392
C  -3.24739484331202  2.35146471393066  3.31399766327702
C  -2.59176283112149  1.81198333052550  4.41168788767764
C  -1.95699931506834  0.56378220536812  4.26230299107606
C  -1.80789060080539  -0.15514883333900  2.97676569335946
C  -1.98064435314712  0.80047972517356  1.84811755673869
H  -3.81811122631319  3.26624321253397  3.37658716330212
H  -2.41678857175912  2.27251857354071  5.37192711366280
Cl  -4.18212032353103  2.38862765802976  0.74872704007269
N  -1.34187263429581  -0.29124317029339  5.09623170604474
C  -0.78413239930107  -1.34012942509084  4.43727577124537
O  -0.64798301031004  -2.47626723916203  4.84355678576142
H  -2.66800256809740  -0.84532357290069  2.86354784711854
Cl  -0.87525772456577  0.41643260951736  0.62231107427830

