%nproc=8
%mem=4000MB
#opt=(noeigen,calcfc,ts,recalc=5,maxcyc=200) freq B3LYP/SVP em=GD3BJ

ts-5254.gjf

0 2
O  -1.03494990053252  -1.28350833144986  2.84511738731780
O  -1.16141756540223  3.83584736935313  2.24362845699628
H  -1.10552372223482  4.73238781757048  2.51465991829669
C  -2.94933722690146  1.69001656320246  2.14613925142772
C  -2.79341954315005  2.37706846438045  3.34378942156565
C  -2.19784527594206  1.83568937065780  4.43914655758583
C  -1.73711736436039  0.48053649526318  4.29776147767987
C  -1.93212308327118  -0.29132337901777  2.87735072503433
C  -2.12798427665930  0.59070945589707  1.70749380992989
H  -3.49405523382017  3.19848506259186  3.44956903517524
H  -1.85121482776409  2.36318876126170  5.30385445634558
Cl  -4.20066927372156  2.34122064363253  1.08447069940869
N  -1.03385305664106  -0.40519485272669  4.99307646664473
C  -0.55610235447769  -1.46688257310180  4.16656793975762
O  0.11073007216831  -2.37648535756659  4.55260207033437
H  -2.94556188555522  -0.62451357839834  3.07710826612974
Cl  -1.64219488862960  0.43622652402023  0.01578529432221

