%nproc=8
%mem=4000MB
#opt=(noeigen,calcfc,ts,recalc=5,maxcyc=200) freq B3LYP/SVP em=GD3BJ

ts-5294.gjf

0 2
O  -1.04501197063358  -1.53846988222504  2.17919212398471
O  -2.41640386103745  3.10511985161071  4.61698327082750
H  -2.11612374255559  3.11567931648349  5.55210372395960
C  -2.99336894189880  1.49095933986214  2.87107406527468
C  -2.25298495156041  1.87743111844744  4.22117557247789
C  -0.78713610506271  1.52474693805099  4.07490688139560
C  -0.61738252298050  0.25011429321106  3.64391073314287
C  -1.80436008866591  -0.62124466508210  2.95434204247042
C  -2.78292263720609  0.22285402022250  2.22334960362911
H  -2.75745386099169  1.24732633337246  4.97648484251043
H  0.03777578326958  1.97913173042709  4.59390680295453
Cl  -3.77638887175770  2.69317950927756  1.97942509930152
N  0.52323593758556  -0.48590334413598  3.46829953681526
C  0.26618845188693  -1.29350526505017  2.38709223159624
O  1.07911885101672  -1.53834773427233  1.53322241726556
H  -2.34859948896031  -1.27538048044307  3.70498813504314
Cl  -3.93412805293388  -0.27391101560477  1.13620971196062

