70
 energy: -143.134966135026 gnorm: 0.117758711599 xtb: 6.6.1 (8d0f1dd)
O    -2.21357505    -1.90144885     2.32857001
H    -3.06882597    -1.72199520     1.93400662
H    -2.30974126    -1.89112499     3.28250091
O    -0.55667592     2.48105843    -2.52099183
H    -0.42608884     2.05855182    -1.67024277
H    -0.29625807     3.37835799    -2.30564534
O    -0.40795075    -1.14564212     5.33254517
H    -0.83610039    -0.41504631     4.88281607
H     0.14695899    -0.83232965     6.04895905
O     1.25967139     2.04831228     2.72984244
H     1.61207516     2.85208182     3.11598374
H     1.69146589     1.95964070     1.87835590
O    -3.42937460    -1.28882643    -2.22527632
H    -2.55966907    -1.66191489    -2.37940771
H    -3.39200103    -0.33476398    -2.13749151
O    -0.76807754    -2.22349743    -1.94758864
H    -0.02340779    -2.33641701    -2.54093011
H    -0.49440137    -2.84394609    -1.26973594
O    -4.30117509    -1.40500737     0.41593090
H    -3.84386923    -1.28059600    -0.41757411
H    -4.96987468    -2.06892927     0.23876673
O     2.60836157    -2.74598319    -2.88207794
H     2.72084588    -1.79382313    -2.89083460
H     3.16544050    -2.99383779    -3.62205609
O     2.28690675     3.06753111    -2.89788077
H     2.24042529     2.11111743    -2.84837378
H     2.38959635     3.28852898    -3.82521706
O     1.70604834     0.39857290    -3.11563883
H     1.51671195     0.34415799    -2.17727372
H     0.86589939     0.76639526    -3.39527206
O    -3.08575281     1.40325780    -1.97310821
Cl    -3.63180453     2.75790928    -2.84941244
H    -2.13583966     1.56727611    -1.93637415
O     4.30597980     3.66885698    -1.04252812
Cl     3.37330276     3.33875687     0.34394659
H     3.70007670     3.42213026    -1.75146709
O     1.37290067    -1.94958610     3.38760872
Cl     2.83224104    -1.10939681     3.64367793
H     0.72647227    -1.75402643     4.07642863
O    -1.79794965     0.93057482     4.38338958
Cl    -2.87624523     2.24752913     4.31958661
H    -1.01175003     1.27938364     3.94657080
C     4.36239103    -1.47428958    -0.42340435
C     3.65494251    -2.50525379     0.18269124
C     2.38448526    -2.27948614     0.67731861
C     1.78606169    -1.04400464     0.40831018
C     2.45777562    -0.05679337    -0.31218252
C     3.76946886    -0.25263522    -0.72872574
H     4.25608982    -3.40155088     0.26084715
H     1.89084587    -3.06395787     1.24027485
C    -2.31260365     1.50759729     0.96272973
C    -1.66492683     2.74224176     1.05242512
C    -3.70912899     1.44821121     0.95584184
C    -2.43302834     3.89964740     1.06251402
H    -0.60641004     2.86725984     1.21453217
C    -4.45247473     2.61715282     0.96449828
C    -3.81631939     3.84949429     0.99139501
H    -1.87711367     4.82219174     1.16837251
H    -5.53371182     2.57717255     0.97540683
Cl     6.06656233    -1.60615197    -0.71257723
Cl    -4.71670455     5.34308009     1.02497982
N     0.45084304    -0.76587071     0.73901798
H     0.01412906    -1.45355523     1.33241972
C    -0.27336153     0.38592389     0.47498932
O     0.11159773     1.26771430    -0.25541218
N    -1.55025811     0.32466301     0.99847349
H    -1.72950778    -0.47136596     1.59012836
H    -4.27594887     0.53519746     0.80569136
H     1.98340281     0.90495470    -0.42161766
Cl     4.71007265     0.82183644    -1.71164200
