%nproc=8
%mem=4000MB
#opt=(noeigen,calcfc,ts,recalc=5,maxcyc=200) freq UB3LYP/SVP em=GD3BJ

ts-529.gjf

0 2
O  -0.05477642981407  6.16701915626102  1.25997395506698
Cl  -1.52166632593348  5.85419558704317  0.74352213429526
H  0.08213904470968  5.19252295359127  2.32481725289412
O  0.17821967711359  4.60393598370033  3.53079078244795
H  -0.31137130920824  3.84629427322221  3.73199490254895

