70
 energy: -143.144365916055 gnorm: 0.111825610524 xtb: 6.6.1 (8d0f1dd)
O    -0.82536684    -1.47656213     2.74894404
H    -0.18642270    -2.01152866     2.27470863
H    -1.48422062    -1.15343844     2.13182050
O    -2.80518925    -2.02666913    -2.11894241
H    -3.17544470    -2.41365484    -1.32364890
H    -2.07410858    -1.47598805    -1.83326871
O    -1.80219364    -4.47947611    -2.41594925
H    -2.13479009    -3.67515297    -2.81817120
H    -1.58805988    -5.09542493    -3.11886613
O    -0.80916469    -0.88965673    -0.81109040
H     0.02225502    -0.59383457    -1.18601638
H    -0.62389141    -1.61708158    -0.21454589
O    -2.46907336     0.23222658     1.19542118
H    -3.28104264    -0.16899852     0.88067764
H    -1.91022675     0.20509685     0.41677328
O     1.65352047    -1.32400767    -2.05352254
H     1.18901402    -1.76514376    -2.76694436
H     2.44402180    -1.09235039    -2.54421797
O    -0.18774800    -3.61475568    -0.20694342
H    -0.80492705    -3.79655370    -0.91784210
H     0.70067784    -3.79351485    -0.52012591
O     0.57255919    -0.06589761     4.42811791
H     0.42875327    -0.91501312     4.00661954
H    -0.14892927     0.40651532     4.00905116
O    -1.90725258     0.78075682    -3.56166291
H    -2.70127410     1.24156629    -3.83829094
H    -1.67586566     1.22622161    -2.74474246
O    -0.35767382    -1.76545080    -3.82840508
H    -0.77373371    -1.04584536    -4.30631775
H    -1.12418881    -2.10761261    -3.36502795
O    -4.39248427     0.24730218    -1.55510644
Cl    -5.45459994     0.88770166    -2.72256567
H    -3.90195558    -0.44002323    -2.02153092
O     2.04232844     2.04640391     4.28459458
Cl     1.40251869     3.61695301     4.44328815
H     1.37493031     1.45509410     4.65272439
O     1.65884628    -1.16630837     0.83599357
Cl     2.81370667    -2.40629612     1.00888569
H     1.57888968    -0.91847192    -0.09286065
O    -1.78528917     2.07547339     3.15559437
Cl    -3.31588773     2.79949194     3.34059713
H    -1.89298619     1.28618305     2.61152618
C     5.60270837    -0.13945775     0.83044685
C     5.08300578    -0.03226506     2.11463587
C     3.85110949     0.55087382     2.34282324
C     3.19116297     1.10812599     1.24244539
C     3.65919009     0.87200308    -0.04987501
C     4.85886610     0.21278782    -0.29197863
H     5.59771505    -0.51027638     2.93768778
H     3.36508598     0.65899007     3.30619622
C    -1.00948637     3.48332999     0.52446629
C    -1.59140430     2.77746438    -0.53147056
C    -1.68014363     4.57372141     1.08582393
C    -2.67735555     3.31539207    -1.21045004
H    -1.12820270     1.82089658    -0.71254595
C    -2.91581072     4.92504361     0.56740151
C    -3.37452624     4.35160907    -0.60938876
H    -3.01336515     2.75859884    -2.07555929
H    -3.49132938     5.70848042     1.04258153
Cl     7.18976081    -0.83657511     0.85281731
Cl    -4.82121594     5.02560311    -1.31326430
N     1.94995563     1.68884840     1.54526664
H     1.84076889     2.05022717     2.47973886
C     1.02855971     2.06103760     0.57918235
O     0.90349995     1.56165696    -0.51361830
N     0.15067247     2.97102713     1.13549734
H     0.40402315     3.36599951     2.02749412
H    -1.18620747     5.09307209     1.90051771
H     3.04749228     1.15927198    -0.88967694
Cl     5.53323998    -0.06296981    -1.86504151
