%nproc=8
%mem=4000MB
#opt=(noeigen,calcfc,ts,recalc=5,maxcyc=200) freq B3LYP/SVP em=GD3BJ

ts-2243.gjf

0 2
Cl  2.24807544258469  -4.21356655027319  -0.32093483616381
C  -1.69150351356360  -3.01219789600506  -0.48494175643981
C  -2.09149519750571  -3.64710783744499  0.69917536606959
C  -1.48338582255920  -3.22525606052179  1.88577119285483
C  -0.82836504296341  -1.96793645312887  1.88692557725504
C  -0.45359642154828  -1.32259277009135  0.77459505220899
C  -0.89772434385261  -1.94100803200508  -0.45596532084186
H  -2.84301400428959  -4.42861713403999  0.74114960251797
H  -1.93854618520301  -3.53806511061684  2.83960341203045
C  -1.62005119056809  1.48226485949846  1.91344643305266
C  -2.53396903906194  0.86676997794754  0.84529434499699
C  -1.33500154789751  2.79550173212959  1.78926274368313
C  -3.48797548727930  1.56269693128103  0.13421112570568
H  -2.41462110311530  -0.26764576351938  0.80447714232019
C  -2.53163827902334  3.43908969027776  1.27477723516436
C  -3.52563472560123  2.86163286864411  0.44440203527403
H  -4.12957309833544  1.07339789235223  -0.57075221546894
H  -2.78094606161870  4.44559933095784  1.64999361501922
Cl  -2.84256638313413  -3.06718706738485  -1.78271686630568
Cl  -5.26487394209255  3.30089961187327  0.87313336668041
N  -0.69262378960101  -1.54796296249680  3.14809449628118
C  -1.10729879193945  -0.33216133049473  3.58028118209841
O  -1.32832339501346  0.08941835245855  4.72035711219398
N  -0.92548863853830  0.71433545022087  2.70213123879828
H  -0.44360320225508  3.29751728191810  2.07797573050564
H  0.07881203069443  -0.38965240824439  0.82691627341003
Cl  -0.94583986823961  -0.70302723875368  -1.64251655351861

