%nproc=8
%mem=4000MB
#opt=(noeigen,calcfc,ts,recalc=5,maxcyc=200) freq B3LYP/SVP em=GD3BJ

ts-2283.gjf

0 2
Cl  1.47957297224855  -2.39904526594635  -0.41866713358430
C  -2.00813860348015  -2.28153396945863  -1.19747734010743
C  -2.22691163695965  -3.08060197502894  -0.02688116176693
C  -1.50751595809405  -3.16233616229438  1.06637214431441
C  -0.69771923554426  -1.97812723847814  1.28831445646033
C  0.08105167703860  -1.47647652998083  0.04041671099500
C  -0.91365163642974  -1.51028011262151  -1.16100994973578
H  -3.11806033678369  -3.66006033448214  0.02322285869438
H  -1.71994456893470  -3.82305064962074  1.89509008588068
C  -2.74214558006754  0.50752772062645  3.12190972603722
C  -2.51172223923373  0.53773756539846  1.80395793563500
C  -3.99735841672074  1.31419104704544  3.60474007098787
C  -3.22183447661274  1.47205941385560  1.02885132892243
H  -1.74164631393439  -0.14681596698505  1.57708144771571
C  -4.45299075457833  2.38387554715521  2.84678140615803
C  -4.17477424308549  2.45176632246500  1.39053541207411
H  -2.82927939439371  1.57037286145009  0.02762278119146
H  -5.21741135153931  3.09479856712966  3.15308458982205
Cl  -2.65224874492013  -2.74469048719043  -2.77706615442855
Cl  -4.83610286056514  3.56970537009070  0.24879289858722
N  -0.83191229081666  -1.27257778765638  2.30226762767990
C  -1.10452700344958  -1.06551260682611  3.64019805504614
O  -0.05752330406878  -1.22221288064960  4.22274135540044
N  -2.28775673551506  -0.48614020492336  4.00978338593756
H  -4.12261380885719  1.40529650373865  4.61365760151185
H  0.47767909838566  -0.45507459142055  0.19060571208267
Cl  -0.25404179445089  -0.74100440487447  -2.51223276633938

