%nproc=8
%mem=4000MB
#opt=(noeigen,calcfc,ts,recalc=5,maxcyc=200) freq B3LYP/SVP em=GD3BJ

ts-3401.gjf

0 2
O  1.71193359255225  -0.56790174540316  -3.20152018639039
Cl  2.73819715812152  -0.98010800544095  -1.92810944828204
H  1.75350499959039  0.35185977888477  -3.47243272863341
C  2.63590211473363  -5.71923639679531  -0.71093108521912
C  1.28274861858903  -6.22037931551599  -0.51838004535686
C  0.15682721017430  -5.84635003035003  -1.23554834825706
C  0.40411817617599  -4.74137525187642  -2.20785683756808
C  1.60314689731748  -4.04831634951453  -2.02683117338798
C  2.76127262039214  -4.56706816609826  -1.44463837069172
H  1.20705016029888  -7.12622582212478  0.07633941250878
H  -0.85460895604621  -6.21754184538769  -1.08475980170775
Cl  3.80515256774155  -5.74078725152333  0.63541824584383
N  -0.56551806533715  -4.36264707966970  -2.97836243942148
H  -0.49963476631652  -3.59678754361987  -3.67098613395720
H  1.80906535296855  -3.15382280067181  -2.57391072422905
Cl  4.23613764879011  -3.58089661883900  -1.74649875601068

