%nproc=8
%mem=4000MB
#opt=(noeigen,calcfc,ts,recalc=5,maxcyc=200) freq B3LYP/SVP em=GD3BJ

ts-3441.gjf

0 2
O  2.12827433211568  -4.36671477659859  -3.70738831788967
Cl  1.32922622699582  -1.46846045675121  -4.38090387372659
H  2.63904527879225  -3.65652561718563  -3.67027086096511
C  2.80259853127350  -4.76368977386129  -0.54845970797533
C  1.69001585829744  -4.26369544557121  -1.10594820876832
C  1.29016820776631  -4.69469133244156  -2.48182655595234
C  1.34025956257646  -6.33350900380312  -2.42809098725356
C  2.75693018656628  -6.52640144776643  -2.10245841725663
C  3.52868553249330  -5.77224061638148  -1.26703205755636
H  1.06381740047507  -3.53746452493954  -0.59479744899164
H  0.24640639464073  -4.64939483066870  -2.75670187155673
Cl  2.51015252657989  -4.69115038619222  1.24828194070087
N  0.20071215175538  -6.77423478881497  -2.79425048736446
H  -0.04795803802476  -7.67990887223077  -3.13755091318287
H  3.20706916086696  -7.29075073763412  -2.73597082355227
Cl  5.34369631792448  -6.31737114013192  -1.19989190183394

