%nproc=8
%mem=4000MB
#opt=(noeigen,calcfc,ts,recalc=5,maxcyc=200) freq B3LYP/SVP em=GD3BJ

ts-5741.gjf

0 1
O  -8.03038372952545  -2.06434602761441  0.45588838838088
H  -8.53638044361792  -3.06272099438349  -0.39486845808674
C  -4.82332089499934  -2.05966502951704  1.95607250148568
C  -4.44942058467564  -1.88164513482828  3.31518985686312
C  -3.82757688812536  -2.59038885697246  1.12356324908458
C  -3.23572687765063  -2.33503946067112  3.82951945258205
H  -5.13251645142455  -1.37917950592338  4.01371044901833
C  -2.53171649212111  -2.65134264406501  1.51608465205509
C  -2.21061031230160  -2.65952062534873  2.89669309592264
H  -2.96967121929871  -1.85556505742471  4.75151459204230
H  -1.68949210795627  -2.80775604656565  0.82788522839583
Cl  -0.63026923006718  -3.43449619085295  3.34251739764828
H  -7.84181624574901  -1.82130048259553  -0.49925941474723
C  -6.91840726746396  -2.70413109953625  1.20686272020160
O  -7.09471105934223  -3.75408743803890  1.67925248627073
N  -6.05656996544557  -1.87933811571876  1.50969922814367
H  -3.97327836429286  -2.81575028723552  0.05864482099819

