%nproc=8
%mem=4000MB
#opt=(noeigen,calcfc,ts,recalc=5,maxcyc=200) freq B3LYP/SVP em=GD3BJ

ts-5751.gjf

0 1
O  -8.06585908941167  -0.95033024811415  0.06333384649800
H  -8.35585148599616  -0.98051807606282  1.32519393190287
C  -4.48143281935697  -1.87405227143452  2.07827962202624
C  -4.14230158089949  -2.16035433747331  3.37565969005604
C  -3.61673557877911  -1.94832583655493  0.97280622212116
C  -2.78629721519609  -2.41470391976853  3.57184415459069
H  -4.96454476222825  -2.17759366559170  4.06185746046857
C  -2.35066242394816  -2.42067974019955  1.22529063458137
C  -1.87488206396402  -2.49900547305064  2.53991072929471
H  -2.43987529130462  -2.51698168293170  4.63869692965213
H  -1.58978923828384  -2.64876426552984  0.43994216935905
Cl  -0.34349176530251  -2.87840974818459  3.12619885632569
H  -8.13521474398583  -1.83430551363005  -0.39327415713848
C  -6.31715510050068  -3.20441361937058  1.32678074988262
O  -6.88304104761376  -4.08488726594739  0.81692438055122
N  -5.88507124299630  -2.34800921481123  2.01880282427429
H  -4.15069519674030  -1.99176047533344  0.02368257841034

