%nproc=8
%mem=4000MB
#opt=(noeigen,calcfc,ts,recalc=5,maxcyc=200) freq B3LYP/SVP em=GD3BJ

ts-5761.gjf

0 1
O  -7.90300765395094  0.40574775356045  -0.46747128109583
H  -7.32508371958323  0.87915301206596  0.12623982560117
C  -4.31196312073838  -2.54381406280836  2.27150612093514
C  -3.82802724277427  -2.37223482978496  3.55286722956516
C  -3.37688514910816  -1.96365470935489  1.36739218049867
C  -2.39164537277224  -2.09514323161939  3.82855130964552
H  -4.52335229996559  -2.48805049923870  4.38558532325409
C  -2.08917345943313  -1.64494033808004  1.52612925756971
C  -1.57618904899103  -2.06740645703322  2.76092470873673
H  -2.06733968182064  -2.47725184979540  4.76396288546623
H  -1.56627716279619  -1.15608524624140  0.75754255560704
Cl  0.14157777639410  -2.40500042892421  2.57371336533536
H  -8.17119182298093  -0.14229249517426  0.36497612213547
C  -6.16182058692789  -3.75804213781872  1.03972426747739
O  -6.66154968734064  -4.26052442542115  0.13921578042605
N  -5.65922333866691  -2.90055392148362  1.78675775092209
H  -3.81501689368293  -1.86272576094698  0.39748937236486

