%nproc=8
%mem=4000MB
#opt=(noeigen,calcfc,ts,recalc=5,maxcyc=200) freq B3LYP/SVP em=GD3BJ

ts-5771.gjf

0 1
O  -7.23958267624355  1.70552659045913  -0.86618886405851
H  -6.55835126952518  1.65716781172110  -1.43115306128417
C  -3.88636921530204  -2.81389921884100  2.18265779241495
C  -3.39515585601501  -2.92981461606763  3.48659311446989
C  -3.39995333814597  -1.87839942252468  1.12627084152594
C  -2.04360441453595  -2.39688263572488  3.57828019366881
H  -3.51510908558812  -3.70055971448950  4.23250545884717
C  -2.14877683084110  -1.38834264847641  1.31943075924525
C  -1.46835228830247  -1.88952612166691  2.44618195599590
H  -1.40526587231734  -2.79547473769701  4.37791608198727
H  -1.69302402883474  -0.91676636047057  0.47062875297234
Cl  0.13211818107690  -1.74866439906400  2.48079061573143
H  -7.65750743228644  1.88094870290389  -0.09059737122530
C  -5.55322531728386  -3.79650671869391  0.91066211872087
O  -6.31967906999227  -4.01109934634106  0.03418402203526
N  -4.85273191383687  -3.66233652365702  1.87200301955228
H  -4.09466400716592  -1.52139952912746  0.37251057952529

