%nproc=8
%mem=4000MB
#opt=(noeigen,calcfc,ts,recalc=5,maxcyc=200) freq B3LYP/SVP em=GD3BJ

ts-3495.gjf

1 2
O  -1.72654804477141  -2.40898349982103  -1.95626066069662
H  -1.94672617302654  -3.34204527470671  -2.17091365837614
C  2.66634232093697  -0.64449673269812  -5.36169997759683
C  2.12852730659957  -1.93043911430820  -5.38977357538316
C  1.89568158824089  -2.70964593501192  -4.27547725372607
C  2.42501722783662  -2.17364612574630  -3.13203186407180
C  3.19049481064012  -1.05091081213335  -3.07793739547647
C  3.17759613746556  -0.19826611224989  -4.11903026416248
H  1.64182298991948  -2.21103867020455  -6.31421439114266
H  1.40035574625957  -3.65803968865818  -4.39799466373119
C  0.97153980547245  -0.99745139116679  0.27138831401517
C  -0.66610754614806  -2.19013559584222  -1.16942500779573
C  0.76213630222364  0.03954669160384  1.25522110890148
C  -0.45257094552637  -1.14631049403422  -0.27115437646895
C  -0.63699443689021  0.37433402685863  1.23337260818469
C  -1.31367690876412  -0.19751130155475  0.18546070263595
H  -0.88262511857390  0.92794087324833  2.11755447423921
Cl  2.71535632574848  0.22286410641908  -6.93166365925785
Cl  -3.02082655427329  -0.32250866254993  -0.02509496837005
N  2.06616261316144  -2.84115627767772  -2.01705718877152
C  1.48881427275161  -2.77224070390568  -0.95361092710912
O  0.12865779483024  -3.28548326468948  -1.09404378406187
N  1.89277386867892  -1.97438742358078  0.09473309264954
H  2.85667472871257  -1.60507263923076  0.10523942415181
H  1.48302971872722  0.42816731539675  1.94658788314277
H  3.85367863968125  -0.91826937968739  -2.24443708946168
Cl  3.61084960435243  1.44723301149971  -4.17852028537792

