%nproc=8
%mem=4000MB
#opt=(noeigen,calcfc,ts,recalc=5,maxcyc=200) freq B3LYP/SVP em=GD3BJ

ts-3515.gjf

1 2
O  -2.08563893951424  -1.59005394673726  -1.78180242753630
H  -2.46642944855144  -2.18888148018484  -2.37048305002383
C  2.82765092697682  -0.73955997497181  -5.50768694543908
C  1.83502010871112  -1.65612295480626  -5.71581731494931
C  1.31902995706515  -2.40569884507828  -4.64123891277908
C  1.68350927099645  -2.07216356525109  -3.33843026967933
C  2.59313419956197  -1.08913696264281  -3.18450907972062
C  3.02785874658327  -0.34482990927536  -4.20913040643824
H  1.47753518725507  -2.00789047071977  -6.65613327906150
H  0.60495947112243  -3.19013330636833  -4.85628289568674
C  0.70842049757117  -1.62535069361044  0.61311070827179
C  -1.20730060181289  -2.25900390447388  -0.99124365215918
C  1.15657522075541  -0.32327199910447  1.08290452056551
C  -0.60884851703075  -1.46996524277775  0.07325326628581
C  -0.05579589463289  0.49755013462552  1.04943934622100
C  -1.11259162578817  -0.19241117731644  0.51456528525085
H  0.08595540740401  1.47317485395195  1.44124875860486
Cl  3.79667333477059  -0.06895541708328  -6.74776096194024
Cl  -2.70897415269823  0.62892935657111  0.26379659601470
N  1.22847786187959  -2.68692283640293  -2.11588084224271
C  1.79415552402543  -2.68050762848400  -1.04537855372477
O  -1.09936732001140  -3.48456861979434  -1.03002935950746
N  1.70582233714864  -2.44167997112902  0.21963588401256
H  2.53233761931987  -2.30450806109008  0.81245242025316
H  2.05159627143402  -0.22547982692045  1.72106859686242
H  2.79064282731850  -0.65881569909130  -2.22523375046765
Cl  4.28550688863321  0.78453551140852  -3.81679872658768

