70
 energy: -143.101634580511 gnorm: 0.097261405856 xtb: 6.6.1 (8d0f1dd)
O     3.42179024    -2.54846423    -4.20402336
H     3.41228189    -3.01359834    -5.04241341
H     3.01412753    -3.17259030    -3.60101718
O    -1.09718963     0.56654811    -5.10140979
H    -1.16640646     0.60020094    -6.05713742
H    -0.26480318     0.99626217    -4.89691846
O    -1.49079203     3.33423554     4.11571249
H    -2.07705414     3.93689475     4.57662163
H    -1.93770291     2.54223139     3.81184008
O     0.60356075     0.88149395     4.80901417
H     0.51491033     1.72561206     5.25504634
H     1.29624583     0.91359908     4.14682455
O    -3.63655206    -0.62054570    -1.74855696
H    -3.25654293     0.22670628    -1.98750536
H    -4.33781531    -0.36772237    -1.14552435
O    -1.69994209    -1.92121647    -4.19857498
H    -1.38444742    -1.21481963    -4.76497114
H    -1.95695854    -1.56290331    -3.34716809
O     0.18204454    -4.78542611    -1.86084174
H     0.54228645    -3.89690515    -1.87052223
H     0.79882451    -5.33181514    -2.35112744
O    -1.60806867    -2.29039381    -0.65888585
H    -2.37942355    -1.79522150    -0.94022944
H    -1.41887493    -2.92812654    -1.34942130
O     1.76120167     0.37568465    -4.48550788
H     2.20028381     0.87342335    -3.79355292
H     1.86574844    -0.55631090    -4.28602834
O     0.94222199    -1.59940925    -2.61658475
H     0.57489796    -1.06380095    -1.91122304
H     0.36743739    -1.22726358    -3.28775430
O    -3.44999520     2.10142265    -5.11689918
Cl    -3.41777910     2.90757169    -3.61681650
H    -2.79583533     1.39746639    -5.03259704
O     0.79526073     3.25459313     2.81579917
Cl     0.44192614     3.45671481     1.16187470
H    -0.06247239     3.33913766     3.24908108
O    -1.27781759    -1.04371696     4.68464231
Cl    -2.77977284    -0.56652696     5.33084966
H    -0.67373076    -0.41513432     5.09761820
O     2.86036522     2.39310506     4.08617302
Cl     3.35008480     3.33077577     5.42112964
H     2.18128297     2.82422584     3.55365988
C     5.30078166    -0.21665119     0.17385814
C     4.94121983    -1.17117061     1.11743150
C     3.65845228    -1.35288271     1.59824037
C     2.62081983    -0.56601861     1.08730514
C     3.00704939     0.48932503     0.26148907
C     4.27415058     0.59470464    -0.30042858
H     5.69999475    -1.86681094     1.45086836
H     3.43829230    -2.14921292     2.30065288
C    -2.09343467     0.83579962     1.27717372
C    -2.18032683     1.55161099     0.08053620
C    -3.08296475     0.98034252     2.25379790
C    -3.19448159     2.48659813    -0.08365493
H    -1.45198621     1.37060883    -0.69349494
C    -4.19459081     1.77332034     2.02026834
C    -4.16006845     2.59678030     0.90456029
H    -3.13730230     3.10279759    -0.97155356
H    -4.98921122     1.88582899     2.74601712
Cl     6.78076141    -0.27829290    -0.72673551
Cl    -5.36790181     3.82893129     0.64850865
N     1.27964109    -0.64701570     1.49253865
H     1.14810872    -0.98108601     2.43426635
C     0.20634740    -0.05465872     0.84603407
O     0.19910007     0.22533451    -0.32903430
N    -0.93168153     0.11407286     1.61067341
H    -0.83448595    -0.41448071     2.46333526
H    -2.99723965     0.35260167     3.13471600
H     2.29185726     1.18386596    -0.14848432
Cl     4.55425140     1.67143580    -1.62991832
