%nproc=8
%mem=4000MB
#opt=(noeigen,calcfc,ts,recalc=5,maxcyc=200) freq B3LYP/SVP em=GD3BJ

ts-637.gjf

0 1
O  -1.24179388449412  -2.69012669584759  -0.92458179834585
H  -0.28716400649518  -2.71323709147887  -1.25186824607835
C  -5.36336719959499  -0.21439417799331  1.18798353757649
C  -4.88058303659337  -1.53835348494950  1.44630172002295
C  -3.52316779429027  -1.67014712055945  1.15961232232824
C  -2.60465214134437  -0.63400286674443  1.07633740153188
C  -3.03761436744136  0.69144961754609  1.25818531622869
C  -4.41404434815090  0.80769647441273  1.40061384575751
H  -5.36248526739507  -2.38600036524497  1.85271767301668
H  -3.23782336856306  -2.71136646132652  1.15625757391722
C  1.72584391665347  -0.80116203347847  2.88647809831484
C  1.93463845138260  -0.36368618411350  4.16682339024283
C  2.85362677517868  -1.18803527282632  2.14071816312053
C  3.30264203224595  -0.34299753195238  4.57618219213529
H  1.15300225553756  -0.00429443394799  4.80200226419732
C  4.18510532448996  -1.30092893719979  2.53120945914454
C  4.39548998724480  -0.79953517193997  3.86394747732237
H  3.49162108526552  -0.06339989865700  5.58500840811665
H  4.87036835849612  -1.83612640684266  1.87297331821174
Cl  -6.96148856152037  0.26518621142310  0.83032177669881
Cl  5.82876022933433  -1.15122127693684  4.75326706650077
N  -1.26272793221286  -0.97358739862870  0.99915564783136
H  -1.19445232564572  -2.09170787440683  -0.27577234649220
C  -0.13224772187181  -0.40152230336696  1.43043139416331
O  0.34795535861259  0.99951236289788  1.34773765122875
N  0.53086312073169  -1.15352021080541  2.22577228077277
H  2.54838925547092  -2.05418956103170  1.56827864663851
H  -2.28957825955758  1.42775872904550  1.12831797550002
Cl  -4.88135030956625  2.39143096877916  1.26562409389308

