%nproc=8
%mem=4000MB
#opt=(noeigen,calcfc,ts,recalc=5,maxcyc=200) freq B3LYP/SVP em=GD3BJ

ts-657.gjf

0 1
O  -0.06821374539824  -4.03143557219056  1.89148961656768
H  -0.46157286711328  -3.75617026968128  1.08629524877993
C  -5.06905208582117  0.07957624619493  1.54790752621417
C  -4.52271550124026  -1.23131003911929  1.76584858689220
C  -3.18521193589314  -1.41683477111233  1.77487452761499
C  -2.34891610149738  -0.26510742169866  1.63898270257881
C  -2.80761173863415  1.06698916241584  1.37523410208271
C  -4.19937761253202  1.16071741955684  1.44344548331318
H  -5.20549545500416  -2.06067220084981  1.68337265163556
H  -2.66389153538141  -2.34180816504643  1.89754539664484
C  2.10283554597544  -1.19857349139659  2.87283541982575
C  2.54250783212083  -2.15511903395609  3.90467916982702
C  2.89161455517544  -0.00983791715172  2.70168558590814
C  3.80623274588796  -2.15615531832405  4.45181600974026
H  1.84433089536799  -2.97388752299098  4.06523386154337
C  4.20532993511930  -0.13660946210921  3.00399065709865
C  4.74113978008304  -1.19181911482937  3.85095723409479
H  4.08711034553724  -3.05838452106339  5.03303294920843
H  4.89343248859465  0.67883356155604  2.72479325539727
Cl  -6.75993519707439  0.29001320002340  1.89828214548535
Cl  6.34905664878997  -0.56147651596076  4.58051787947884
N  -1.11804065245175  -0.80640206066598  1.76941536023619
H  0.91582714676211  -3.39012944796450  1.93050038379164
C  0.16331658541074  -0.68114552007580  1.51623242517454
O  0.32826574084556  0.04382154931036  0.63265312433659
N  1.00170255260775  -1.55859979457466  2.33740127725354
H  2.47430642506368  0.75522965245990  2.09988575835963
H  -2.12602819854497  1.89265599864138  1.31939205707247
Cl  -4.80274191284307  2.77580286701832  1.07771903543614

