%nproc=8
%mem=4000MB
#opt=(noeigen,calcfc,ts,recalc=5,maxcyc=200) freq B3LYP/SVP em=GD3BJ

ts-1457.gjf

0 2
O  -6.25171983507663  1.21801780498135  0.23071677115139
H  -5.68910770401923  0.86280382746512  -0.50644494106460
O  0.70650857590843  1.72927459675880  -5.33183682575327
Cl  -0.19923924001820  1.74201382032758  -3.95794822339686
H  -5.75643979153396  0.77500129369870  1.01517650278390

