%nproc=8
%mem=4000MB
#opt=(noeigen,calcfc,ts,recalc=5,maxcyc=200) freq B3LYP/SVP em=GD3BJ

ts-3414.gjf

0 2
O  -1.66290668210139  1.33466673966107  -2.82277759965786
H  -2.47325917341623  1.87600916841942  -2.89792232473420
O  -0.71107370271243  -3.39740483978139  -4.99389253236745
Cl  1.41023487074669  2.36651164964239  -3.01017750037955
C  -0.94504016171872  3.27724815330606  -1.53508846377691
C  -0.88292437257515  1.80944806363742  -1.87097848862469
C  0.52693439046327  1.35080880530644  -1.85121186659361
C  1.02546129537649  1.45406206488663  -0.28108690406174
C  0.56898679902893  2.61810023893908  0.32146512052515
C  -0.07601125453419  3.54143452369839  -0.44918348306079
H  -1.22407120910520  1.29373555862643  -0.94853860177834
H  0.74640689553381  0.36818405672387  -2.19117971658551
C  3.90731660554890  -0.80811866040410  -1.19799674535572
C  4.57461556163881  -0.25487817376496  -2.30977496762716
C  2.95739889318309  -1.83984426384028  -1.46854359718271
C  4.72778607337866  -0.78671866873887  -3.55938071025364
H  5.01315950728430  0.72769446384877  -2.07218524091313
C  2.87666542410170  -2.17943614227586  -2.87718332066800
C  3.87360240743757  -1.81262976619229  -3.85561823223164
H  5.55168645795608  -0.35036892721463  -4.12554571533203
H  2.07242867610311  -2.84843156418818  -3.16835679702966
Cl  -2.32895229101570  4.35812289844498  -2.09014194300196
Cl  3.73541786619854  -2.72748098288320  -5.21641783681195
N  1.92374453981483  0.58150858542861  -0.02958455227881
C  2.79500480956592  -0.04535665306920  0.77719763935393
O  2.76421328338677  -0.63143668023535  1.79219400057386
N  3.93012066957761  -0.21116515091720  -0.08162915740633
H  -0.81793610859089  -2.52240084065740  -5.33089755076748
H  2.51229666435488  -2.59146135077815  -0.81914705661577
H  1.27031808334174  2.98891362665807  1.07518656135211
Cl  -0.00799479930554  5.23587911367630  -0.12025484210977

