%nproc=8
%mem=4000MB
#opt=(noeigen,calcfc,ts,recalc=5,maxcyc=200) freq B3LYP/SVP em=GD3BJ

ts-3424.gjf

0 2
O  -1.23894404743474  1.93723325607125  -3.40818485840486
H  -1.84625031933423  1.24750919599185  -3.60613955892257
O  -0.08650292755708  -3.87184790811655  -5.10375817082810
Cl  1.80597782345708  2.44011142380932  -2.38334310755925
C  -1.01306701265030  3.03246118770723  -1.11684312764800
C  -0.80662781317184  1.73248066271756  -1.99850536244100
C  0.51769909300671  1.31499577506628  -1.86582380867925
C  0.98978246672105  1.32928038180701  -0.43522094901950
C  0.99362134311944  2.51830586014755  0.31177927989893
C  0.07666438389757  3.39498069675218  -0.25776199512170
H  -1.40011925005693  0.84721898959446  -1.60822633841557
H  0.93754385776371  0.39734647297970  -2.36586341881196
C  3.74756236282398  -0.61216833701245  -1.72894106208013
C  4.65370540367670  -0.29595395921729  -2.86885718454229
C  2.78149024511763  -1.56600280043391  -2.18626024450067
C  4.55331470815566  -0.78141566263782  -4.15903990215937
H  5.33658285336048  0.41780854309061  -2.50868334091760
C  2.89857434372210  -2.26184379662781  -3.38935088847630
C  3.73252808485442  -1.83890337574316  -4.44071256499432
H  4.96690202835606  -0.21864726971025  -4.95316428071826
H  2.38472928780186  -3.21050862016258  -3.51039969141595
Cl  -1.95611438980779  4.08167798874775  -1.98707088342925
Cl  3.56334379387902  -2.38173967768504  -6.08893937611800
N  1.41577345665496  0.16987992694728  -0.27346212631480
C  2.51500195810466  -0.27463765921073  0.41255234509087
O  2.56650257393153  -0.61006002838938  1.53880764751053
N  3.60058323348684  -0.28975637645792  -0.45444198142903
H  0.70529312924068  -3.33605787425858  -4.90568925724956
H  1.98949982147994  -2.02020472865035  -1.68298447953574
H  1.90813002939936  2.77475354767793  0.81273650714840
Cl  0.07536955662522  5.21382216622554  0.38695507455944

