%nproc=8
%mem=4000MB
#opt=(noeigen,calcfc,ts,recalc=5,maxcyc=200) freq B3LYP/SVP em=GD3BJ

ts-3464.gjf

0 2
O  0.50856231065329  3.60792481888215  -3.17366223117016
H  1.43734832581653  3.85725161621367  -3.22179461373196
O  1.78934544798421  -4.46799076702682  -6.62711346746770
Cl  3.22187346625155  2.62863102877004  -2.53084027637688
C  -0.04899972367475  3.74376373477806  -0.79721374438773
C  0.35342938089533  2.88877198752237  -2.04514958721451
C  1.55688614467455  1.95462915081762  -1.81135583692699
C  1.71941557156534  1.46919619307611  -0.18404405119952
C  1.04321530528477  2.17269087352338  0.75055911483074
C  0.05465007120889  3.11299843534568  0.40283349763261
H  -0.54448217962071  2.27380573425323  -2.14987800978342
H  1.51956113985154  1.07488204117223  -2.42410907432277
C  3.21388391137606  -0.94662755182048  -2.89477222203501
C  4.18051616004721  -0.20751371350069  -3.54875096868742
C  2.27453540107338  -1.58481819064184  -3.89647585373436
C  4.06726649322932  0.28250922386686  -4.82328049856363
H  5.02878929393923  0.10308605697773  -2.94078367382205
C  2.33549944777785  -1.40886628160590  -5.19532460579820
C  3.23807332076983  -0.41931842707724  -5.73913367365014
H  4.72989538289253  1.07379039857745  -5.16843693352961
H  2.03090628121954  -3.62055013778400  -6.31135650632886
Cl  -0.71742860182802  5.29607606658966  -0.82418123648406
Cl  3.28382633699264  -0.02841681284076  -7.45748375832735
N  2.52188395934329  0.43999148641589  -0.08203633679780
C  2.72804461232611  -0.88218742893629  -0.38898253229338
O  2.74590797844311  -1.75792535690510  0.49193217331207
N  3.21152056750848  -1.24976549955609  -1.60152460737068
H  0.97861320625555  -4.99260209911165  -6.46455932541431
H  1.66212192474491  -2.48490860650262  -3.59567096047163
H  1.05643414167242  1.68427311287862  1.73184307657948
Cl  -1.05914189975914  3.41398489419196  1.75205852436723

