%nproc=8
%mem=4000MB
#opt=(noeigen,calcfc,ts,recalc=5,maxcyc=200) freq B3LYP/SVP em=GD3BJ

ts-5735.gjf

0 2
O  -4.09693561591397  2.49095207558407  0.33602779301097
H  -3.61431543523390  1.70697041388205  0.76101252283879
Cl  -5.01582938897373  4.09764779350576  -1.75170248549190
C  -3.26548253125807  3.91161046799133  -1.52636510621340
C  -3.00848755722831  3.15257305973780  -0.27827867405685
C  -1.75554683894822  2.92797357617424  0.09581040847412
C  -0.70597315113033  3.29313988709061  -0.75313200450416
C  -0.94057771038387  3.94361661483555  -2.03439865068065
C  -2.21456397103937  4.13668866631391  -2.41095576619337
H  -1.53604549597084  2.66203023443791  1.13072497907288
C  2.25577468224054  0.74815231712892  1.13948179262536
C  1.81750460886025  -0.42846954047486  1.72881501638155
C  3.56832980915296  1.10387580635441  0.62208044953748
C  2.85840577319230  -1.15801796900117  2.25337260004227
H  0.78475354800326  -0.53214454543024  1.95605746891770
C  4.41770394840525  0.12124325753124  0.90680467107326
C  4.14955787218225  -0.76561824988889  2.02573018399320
H  2.56590416634083  -2.06166432323141  2.79580632827734
Cl  5.79362008913944  -0.07753496978571  0.01542728627907
Cl  5.67576499255972  -1.28015917424665  2.67774391624493
N  0.51035405843411  3.31182515354250  -0.37540700135162
C  1.50990254588219  2.78438953788854  0.30590397539974
O  2.40904780248495  3.56701030815759  0.57171198879537
N  1.26801136795819  1.52058362025265  0.67295085161644
H  -0.08061594133570  4.26433812246897  -2.59310803860551
Cl  -2.51416047563914  4.62289812655070  -4.14356190028891

