%nproc=8
%mem=4000MB
#opt=(noeigen,calcfc,ts,recalc=5,maxcyc=200) freq B3LYP/SVP em=GD3BJ

ts-5755.gjf

0 2
O  -3.65938683659785  2.60092508615936  0.21605152458594
H  -3.21377963434522  2.20294344153973  0.97792488159691
Cl  -4.72974727062149  4.88954637325309  -1.54471171723396
C  -3.06368060040638  4.32918196283590  -1.40238863618545
C  -2.74859817762978  3.25390609650656  -0.58245331839046
C  -1.36092711127492  2.92057921779366  -0.44018722388259
C  -0.37352437622204  3.59581325224976  -1.26908290543592
C  -0.76820704787993  4.46586409386912  -2.30767977989819
C  -2.16892944116840  4.81951815712482  -2.40608345328044
H  -0.96253557792643  2.10197552636277  0.11928034173191
C  1.84528595441661  0.88066929208720  1.26350946705806
C  1.43223115497276  -0.27368852033206  1.98865643904344
C  2.99630910958587  1.05361063039878  0.48325534098505
C  2.41227700883672  -1.28065228518180  2.10688957251390
H  0.47767147611302  -0.17794362482301  2.49621089971087
C  3.98252496963650  0.20088787113580  0.60446181536229
C  3.53900862763274  -0.88098852754902  1.45115758989486
H  2.49127838180494  -2.19926073259153  2.68517479304100
Cl  5.39208659644730  0.59958331102808  -0.32528029210265
Cl  4.72986063461442  -1.76713014281205  2.15658697993611
N  0.93658401303789  3.47281442293740  -0.91979124245750
C  1.39765604053608  2.66278801372542  0.04367959182130
O  2.65712471014562  2.49697831527659  -0.09997415603794
N  0.93053692261839  1.89732153464414  1.02238604284337
H  -0.09493771840353  4.77965901693933  -3.08464439967562
Cl  -2.94219410451480  5.75214363282678  -3.70523351747728

