%nproc=8
%mem=4000MB
#opt=(noeigen,calcfc,ts,recalc=5,maxcyc=200) freq B3LYP/SVP em=GD3BJ

ts-5765.gjf

0 2
O  -3.59938115537697  3.05982030106823  0.24169598533417
H  -3.39985485167919  2.81989347219109  1.14352281580639
Cl  -4.71257719747082  4.87780477111759  -1.36161273050907
C  -2.96438776707899  4.60936133123026  -1.45193050252783
C  -2.65014686590611  3.60532875479102  -0.56068381723014
C  -1.33758914301572  3.14787941207178  -0.53292394863731
C  -0.34596061258159  3.92084664939037  -1.27918283454962
C  -0.73797579222412  5.03309829144753  -1.96930221615341
C  -2.06605035378618  5.23439119247294  -2.32008692848966
H  -1.01032794283587  2.17558138960228  -0.17633748110528
C  1.48006606686142  1.23017336796869  1.28983008200681
C  1.33337695704067  0.17088594286439  2.23682181099078
C  2.57843527635436  1.10215081335727  0.46446268488316
C  2.41135393024060  -0.90489075813237  2.42199593646526
H  0.49470407674856  0.06871996583327  2.87691338318211
C  3.58902748639649  0.36406080767942  0.82398544343956
C  3.52436081259712  -0.95609845092971  1.50413910650815
H  2.11756207625608  -1.76282128011148  3.02208237760434
Cl  4.94835065830218  0.92204811647798  -0.16800604597673
Cl  4.79138227610442  -2.19927224065296  1.71769732028426
N  0.96946927372303  3.46897347269959  -1.37349150255434
C  1.19703314674082  2.63199765428203  -0.38891732752399
O  2.41567857239369  1.85343338866357  -0.56541229110843
N  0.70760166222591  2.28681877742449  0.78791744605681
H  -0.02927676215238  5.68575794834631  -2.45764015475756
Cl  -2.59483440983866  6.18602753283925  -3.46061699996403

