70
 energy: -143.133842647872 gnorm: 0.103493822022 xtb: 6.6.1 (8d0f1dd)
O     0.01172385    -3.69800832    -0.85132129
H     0.61171050    -3.63105387    -1.59621803
H    -0.88334912    -3.89790060    -1.13101064
O    -2.34127167    -0.19139458    -3.79481745
H    -2.54592994    -1.11450881    -3.63571404
H    -1.54662578     0.04157106    -3.31149251
O    -0.52641271     0.45813588     3.14337697
H    -1.41712515     0.38098009     3.48981161
H    -0.20306281    -0.40134395     2.86755522
O    -2.82682454     1.23387405     4.79428352
H    -2.76095237     2.17661193     4.63228004
H    -3.14638033     1.02073268     5.67280120
O     1.55055036    -2.13970586    -3.13161239
H     1.41850005    -2.40628512    -4.04311522
H     2.06693429    -1.33378329    -3.07526908
O    -2.02385576    -4.68236541    -2.56449582
H    -2.92650049    -4.48326544    -2.81930884
H    -1.55847184    -4.98723932    -3.34539861
O    -0.17368628    -0.34468534    -1.34200620
H    -0.09171104     0.39045223    -1.95208017
H     0.06180634    -1.09604160    -1.88913102
O    -4.02001815    -2.38689901    -1.89095136
H    -4.56878801    -1.60073146    -1.90237117
H    -3.47569787    -2.37756593    -1.10167015
O     0.22728096     1.52018735    -3.60321397
H    -0.05724895     2.09096469    -4.31917106
H     0.71127960     2.17059455    -3.09130226
O    -2.17205913    -1.32935293     0.04352794
H    -1.63670599    -0.63929458    -0.35214215
H    -1.70447100    -1.64401022     0.81921500
O    -5.29482099     0.14456426    -2.51209786
Cl    -5.97397932     1.66364701    -2.14837576
H    -4.42602065     0.26836979    -2.91265318
O     2.64917024     2.48363001     2.84048355
Cl     3.51473323     2.16510159     4.27244200
H     1.80352905     2.90352364     3.03839116
O     0.23427076    -2.02648156     1.62343975
Cl     0.83320089    -3.10474473     2.79808653
H     0.29625001    -2.54561314     0.81273197
O    -0.08144130     3.04223194     4.02489161
Cl    -0.83919682     3.62622862     5.43411667
H    -0.23748423     2.09619094     3.91884865
C     5.51113891    -0.66397217     0.23658448
C     4.66277169    -1.11983167     1.23817715
C     3.41437393    -0.57842419     1.47915425
C     2.96526565     0.45109600     0.64531920
C     3.85265580     0.97761794    -0.29287533
C     5.05714193     0.35388280    -0.59712742
H     4.93596289    -1.88631754     1.95140990
H     2.75305605    -0.92926590     2.26373331
C    -1.31693361     2.90963166     0.14916697
C    -1.20972323     3.81645626    -0.90821306
C    -2.49891120     2.80165167     0.88749375
C    -2.26049818     4.66037325    -1.24488151
H    -0.29011956     3.79084714    -1.47038676
C    -3.58217033     3.56558066     0.48497112
C    -3.46279346     4.42632328    -0.59621055
H    -2.22375647     5.36577302    -2.06487931
H    -4.54696865     3.41768847     0.95196487
Cl     7.02523721    -1.48127934     0.02510391
Cl    -4.89595518     5.39521375    -0.81963528
N     1.65631513     0.90521239     0.86884080
H     1.23529744     0.59298480     1.72966179
C     0.94466948     1.81264669     0.10011609
O     1.35552062     2.21335971    -0.96283486
N    -0.28152778     2.10682800     0.66416489
H    -0.53281425     1.63517625     1.51871026
H    -2.71031219     2.10346716     1.69078202
H     3.57625532     1.88087052    -0.81220431
Cl     6.08085270     1.15687419    -1.74280213
