70
 energy: -143.148277535703 gnorm: 0.107012868455 xtb: 6.6.1 (8d0f1dd)
O    -0.64967319    -0.55586600     0.57094909
H    -1.59223779    -0.40104140     0.48764629
H    -0.35526422    -1.24313428    -0.02932113
O    -3.16478114     0.03321434    -0.75901255
H    -3.18424123    -0.88030221    -1.04961126
H    -3.20267691     0.51983277    -1.58430310
O     2.16404711    -1.48886838     2.83408081
H     2.38445581    -1.77050768     1.94445284
H     2.94201257    -1.66349769     3.36663382
O    -4.06267096    -0.29836161     1.88483138
H    -4.97274519    -0.07705983     2.09008585
H    -3.89297303    -0.08722214     0.96506989
O    -3.29583347    -0.75388242    -3.33928291
H    -2.49058247    -0.25940182    -3.50176043
H    -3.72539451    -0.93909749    -4.17624814
O     0.26362564    -2.86456249    -1.36437227
H     0.53902653    -2.42774471    -2.17225999
H    -0.69148723    -2.94442559    -1.33752539
O    -2.32978924    -2.34764161     2.14702138
H    -3.05468389    -1.74287313     2.31471243
H    -1.51478802    -2.03763522     2.54577899
O    -0.23967642     0.31917268     3.18127751
H    -0.44199776    -0.07159858     2.32939602
H     0.62924058    -0.05148274     3.34539432
O    -0.12359487    -0.69326972    -2.97020827
H     0.79275669    -0.42081387    -3.04373531
H    -0.49089609    -0.17345474    -2.25311691
O    -2.89231714    -2.88464644    -0.40144232
H    -3.09243033    -3.79602742    -0.18081196
H    -2.69814620    -2.49545753     0.45305632
O    -0.33341946     2.78549368    -3.44195012
Cl    -1.78339506     1.89219083    -3.46920834
H     0.11856319     2.63632589    -2.60287500
O     1.33587903     2.46321460     4.14899967
Cl     0.71665272     4.03984034     3.97018496
H     0.62324383     1.84117907     4.33823489
O     2.48379051    -2.83468038     0.37226322
Cl     3.68734366    -2.95350891    -0.82711303
H     1.79377488    -3.38787588    -0.01301500
O    -3.25261176     0.34594320     4.52629004
Cl    -2.08499852     0.01649142     5.72182409
H    -2.68005590     0.39715306     3.75159952
C     5.20725770    -0.25066842    -0.00442834
C     5.06406543     0.07813813     1.33799659
C     3.89467771     0.73028636     1.67993806
C     2.95803110     1.06895300     0.69765049
C     3.21710482     0.85572387    -0.65597782
C     4.32655066     0.10266366    -1.02262712
H     5.84599107    -0.11404733     2.06083262
H     3.71884428     0.90457759     2.73573191
C    -1.48736136     3.32276198     0.56159861
C    -1.45436933     4.11014285    -0.59201327
C    -2.65584714     3.27752466     1.32739998
C    -2.52677946     4.91404489    -0.95718116
H    -0.58612544     4.24285950    -1.21723712
C    -3.79236180     3.94937488     0.90785972
C    -3.70559750     4.68443061    -0.26527606
H    -2.43417198     5.49055371    -1.86844217
H    -4.70155271     3.79418511     1.47361506
Cl     6.57864485    -1.23933950    -0.38788008
Cl    -5.16160852     5.55362111    -0.67412774
N     1.78572175     1.76201131     1.03661356
H     1.72126525     1.90533591     2.03213260
C     0.71427314     2.08714080     0.21984990
O     0.62641936     1.98096741    -0.98025145
N    -0.32051042     2.63799942     0.95062428
H    -0.33815667     2.34058284     1.91347423
H    -2.62548633     2.57102386     2.15041814
H     2.56215821     1.20985877    -1.43546378
Cl     4.66727998    -0.03682704    -2.71667407
