70
 energy: -143.145977945960 gnorm: 0.118222636365 xtb: 6.6.1 (8d0f1dd)
O    -0.75287851    -1.43366104     0.65088365
H    -0.05341162    -1.23527303     0.02580263
H    -1.49350631    -1.01070434     0.21280058
O    -3.61068975    -1.26212526    -2.88238526
H    -4.02902030    -1.87202433    -3.49259955
H    -3.57295809    -1.77160203    -2.07099891
O     0.30337548    -0.32314829     2.83600450
H     1.03530995    -0.88187882     3.10326979
H    -0.02984721    -0.67092004     2.00693525
O    -2.41593599     0.64897054    -0.52631556
H    -3.19667796     0.54692853    -1.07346122
H    -1.80753042     1.00612581    -1.17563924
O    -0.93655769    -0.76342755    -3.00980288
H    -0.99180368    -0.50104481    -3.93036921
H    -1.87866540    -0.86693852    -2.86469378
O     2.77420442    -3.16834759    -1.42102194
H     2.07767060    -2.60279531    -1.75914800
H     3.56439428    -2.69392168    -1.68533141
O    -1.14186726    -3.97228334    -1.21683373
H    -0.66225219    -3.87594512    -0.39219697
H    -0.61388062    -3.63463555    -1.94248010
O    -2.20801183    -0.91014362     3.70070831
H    -2.01057475    -1.84839301     3.70740585
H    -2.55965082    -0.76190510     2.82109938
O     1.11556524    -1.01509031    -1.41054906
H     0.35142142    -0.76295371    -1.93194139
H     1.66424482    -0.22879064    -1.41517011
O    -3.79493636    -3.17216728    -0.90745593
H    -3.08137723    -3.80771376    -0.98652786
H    -3.93024181    -3.16110203     0.04170596
O    -1.40304460     1.97397090    -3.13141681
Cl    -1.30406808     3.18486467    -4.32519323
H    -0.71233790     2.07411249    -2.46547212
O     1.61444762     1.95324353     3.84024513
Cl     2.36053433     1.72946085     5.35498623
H     0.69151365     2.19025911     3.99059007
O     3.04425176    -2.63846305     1.84092379
Cl     1.40438129    -3.09803417     1.86890720
H     3.50185504    -2.97821960     1.06262382
O    -1.34174472     1.56985720     4.13881408
Cl    -2.33771605     1.67810417     5.51630620
H    -1.42264336     0.60875717     4.12064221
C     5.14357554     0.23415705    -0.61008459
C     4.85949997     0.09974359     0.74341332
C     3.62010817     0.42064433     1.26362442
C     2.65533056     1.02810131     0.45301295
C     2.99478968     1.25214900    -0.88095316
C     4.23224414     0.91159273    -1.41492819
H     5.63600226    -0.38124759     1.32352241
H     3.45702222     0.28944144     2.32766589
C    -1.78921050     3.06845007     0.64782828
C    -1.95401535     3.84705457    -0.50042767
C    -2.78693281     2.99805269     1.62427665
C    -3.16220234     4.52139128    -0.62381182
H    -1.18334879     3.95673218    -1.24635651
C    -3.93734636     3.76243063     1.51779999
C    -4.14667471     4.48285208     0.35107080
H    -3.40676886     5.17105190    -1.45415118
H    -4.70435983     3.69344841     2.27788077
Cl     6.59450537    -0.46474728    -1.25160143
Cl    -5.68149616     5.30718883     0.26497862
N     1.38234915     1.37139260     0.93385008
H     1.12701403     1.04835256     1.85374345
C     0.41080558     2.02217695     0.18994356
O     0.44682522     2.27262877    -0.99124682
N    -0.64027784     2.34775222     1.02509485
H    -0.62434177     2.11699850     2.00608759
H    -2.57099605     2.47758880     2.55159141
H     2.29609878     1.83727335    -1.45664880
Cl     4.57665180     1.15205255    -3.09686507
