%nproc=8
%mem=4000MB
#opt=(noeigen,calcfc,ts,recalc=5,maxcyc=200) freq B3LYP/SVP em=GD3BJ

ts-3866.gjf

0 2
O  1.81601629185626  -3.82257831743261  2.29263591164575
H  1.09382392650352  -4.31210629463806  2.72383132704361
C  0.68712368525922  -0.27824909299996  -3.09044152624699
C  0.30383863729140  -1.48164449164471  -2.60502548738827
C  0.15873064793276  -1.50755845328618  -1.28043947091279
C  0.96982790169933  -0.69819928484184  -0.46522039123413
C  1.55038436883591  0.44034151747925  -0.99291045615647
C  1.11691907121873  0.80329245637371  -2.20865464018674
H  0.08106551428222  -2.37184098540728  -3.12799608600336
H  -0.35106449592846  -2.36996736787177  -0.86827040033063
C  3.92335990919168  -1.19720634497719  3.49392656727793
C  3.89086990935353  -2.03807776484450  4.57910830279992
C  1.50094170861072  -1.36380954568965  1.91972044140314
C  2.99840913770909  -3.03408155466416  4.39354319904284
H  4.42186198190382  -1.95468097732969  5.48408136267012
C  2.96034440794608  -1.80371321514854  2.33604071602275
C  2.57292952592496  -3.12876405772306  3.03741286049037
H  2.83113833664326  -3.79605233375110  5.11751252244455
H  3.62023240761803  -1.86442146963527  1.49702490823334
Cl  0.87614965692535  0.19779022596530  -4.65352597522996
Cl  -0.06856082584194  -8.85758573346126  1.92414257277310
N  1.05192345266879  -0.96380442677638  0.82941885829165
C  4.42989124723361  0.98624273266331  4.05883699246275
O  4.74434947078222  2.04527650835653  4.39734457085098
N  4.36781307054976  -0.00479934459210  3.40027449164667
H  0.75528423470397  -1.43824928759644  2.73815896865416
H  2.15877769219734  1.10846365987554  -0.36062672485538
Cl  1.48718840409311  2.47861941518382  -2.51991304409338

