%nproc=8
%mem=4000MB
#opt=(noeigen,calcfc,ts,recalc=5,maxcyc=200) freq B3LYP/SVP em=GD3BJ

ts-3876.gjf

0 2
O  2.22676734056370  -4.16629622030438  2.37517554404821
H  2.45830737003861  -4.86125627467057  2.93663451495634
C  0.95489930487084  -0.19403425007785  -3.06550998929384
C  0.04444047806745  -1.04637177938365  -2.60454166806201
C  0.14959008101992  -1.70848992605693  -1.37198654449811
C  1.01972101130154  -1.15469259350398  -0.32936301034073
C  1.55291757657885  0.10268588932433  -0.66503955614111
C  1.51738534316925  0.51193169192373  -1.99915263014023
H  -0.80786850463876  -1.27358418414280  -3.30913312111663
H  -0.40998402696331  -2.59157628961043  -1.09900547613377
C  3.91115054453338  -0.83362036260288  3.02236634208007
C  3.81773926191147  -1.50608710014122  4.22540361907657
C  1.70008929722306  -1.27554866565899  2.03114553538143
C  3.54893991822322  -2.87064197726350  4.02047867988197
H  3.85673827112316  -0.89483703430124  5.16723055112273
C  3.18585664667323  -1.67222703762326  2.02075790534253
C  2.98735566950492  -3.05783484133045  2.69854632537203
H  3.35413258707097  -3.79099219279682  4.58791632010030
H  3.48809132035847  -1.61380792408061  0.94853018473770
Cl  1.09776764513480  0.05525029894678  -4.74343831168290
Cl  -0.21606412068451  -9.06572959356583  1.91204705750090
N  0.98443046612891  -1.45416757714087  0.99403502856975
C  4.76263095188873  1.29650944152010  3.62029821735195
O  5.26225901579259  2.10815988573478  4.26911604478488
N  4.16152225675803  0.49702840758724  2.90173919883425
H  1.17553751820299  -1.09111027006827  2.94395290550218
H  2.29482474770984  0.55735466879263  -0.05288381653022
Cl  1.88995902476281  2.06055236112460  -2.72330031300355

