%nproc=8
%mem=4000MB
#opt=(noeigen,calcfc,ts,recalc=5,maxcyc=200) freq B3LYP/SVP em=GD3BJ

ts-223.gjf

0 1
Cl  1.35026331810969  1.01518087474399  -1.01645199595335
C  4.68889935075068  1.61404152610922  -2.96918473459020
C  4.01032624237495  1.24431733248173  -4.10800756918719
C  2.73951543792626  1.71008552257460  -4.35060698278294
C  2.03376419606756  2.35311639518898  -3.28955107860063
C  2.64445252100948  2.46448139588883  -1.98102756626248
C  4.04019255432343  2.27241382490276  -1.95502499816526
H  4.45401732833837  0.55753173617435  -4.80640252431976
H  2.31298679695206  1.77389699872773  -5.36239634336058
C  -2.32760800584897  2.03887773425415  -3.10806525684714
C  -2.93550344986886  1.33583453303220  -4.13586166167244
C  -3.26178742439023  2.75123648787730  -2.29986845913609
C  -4.21180567035526  0.79929469420597  -4.08722332382704
H  -2.29600930375682  0.88419406358457  -4.92796202570766
C  -4.58008026342314  2.32514441445380  -2.22144836464686
C  -4.94450195075705  1.21756433060947  -2.97717140476481
H  -4.65372741263989  0.18613923989151  -4.85516339822495
H  -5.34191693392267  2.82813219186118  -1.64070467874691
Cl  6.28992284304694  1.02739109960050  -2.82013951665577
Cl  -6.24355024583720  0.33788069795215  -2.33840590424423
N  0.99739162959402  3.08906198912835  -3.58690494817769
C  -0.26244833450632  2.93600087784138  -3.91925940526583
O  -0.79989793420862  3.34213919617107  -4.92135404929818
N  -0.94825137238349  2.16134088087517  -3.01386491786387
H  -0.48552222306649  1.86251801149047  -2.15701219602203
H  -2.97781621047597  3.63318643074960  -1.76663372157391
H  2.28965689001595  3.28457830882197  -1.40106781855906
Cl  5.22630748172336  3.36823096660574  -1.10166223264912

