%nproc=8
%mem=4000MB
#opt=(noeigen,calcfc,ts,recalc=5,maxcyc=200) freq B3LYP/SVP em=GD3BJ

ts-4198.gjf

0 2
O  4.59935743768683  -4.79072257566679  -2.88570907097169
Cl  -1.44109521233570  -3.47880348370900  -4.03418357534466
H  5.13314541837164  -4.36471738014265  -2.12662808193845
C  -5.30939436908911  -1.32440810119868  -1.08873535489243
C  -4.31548115312744  -0.32131284060997  -1.28945779136366
C  -3.00682579934961  -0.58502191393023  -1.43844088057167
C  -2.58101479648268  -1.92811970131937  -1.15863233375194
C  -3.50087318594609  -2.90857935811202  -0.82276191378257
C  -4.88904898178510  -2.59839353927453  -0.77667112651995
H  -4.65370866346422  0.71798606378668  -1.29471377298622
H  -2.29241155562056  0.14559123825016  -1.69665606133568
C  1.40202902902956  -3.53072845621759  -1.42665228290356
C  3.24956203339640  -4.58726233580933  -2.78795672643013
C  1.36369462606992  -2.84055137772571  -0.23091949637869
C  2.75600539719308  -3.95485818060848  -1.72336657241555
C  2.66829053258321  -2.69019345491679  0.23834946777363
C  3.49540575291875  -3.38805102125349  -0.67800485127181
H  2.95168581736716  -2.13265249202766  1.12715745396992
Cl  -6.80587693341936  -0.99174429188634  -1.90290782406677
Cl  5.16334570418961  -4.09260576891955  -0.34156408815565
N  -1.26503069402464  -2.26720985634201  -1.46919520779604
C  -0.85131693331872  -3.11354882575315  -2.24193167346658
O  2.61225175864767  -5.02171466095271  -3.74474403735533
N  0.32501261598907  -3.74619705502042  -2.22948507436010
H  0.49470727197682  -4.52046307313326  -2.98681566075306
H  0.49981837413309  -2.58051428437518  0.33485956227807
H  -3.04187836046383  -3.88573819575885  -0.86375329382518
Cl  -6.24969769562474  -3.80230094666021  -0.59372680444913

