%nproc=8
%mem=4000MB
#opt=(noeigen,calcfc,ts,recalc=5,maxcyc=200) freq B3LYP/SVP em=GD3BJ

ts-4208.gjf

0 2
O  4.29807167887986  -4.97855193243144  -3.38373813909625
Cl  -1.65319035007195  -3.49340915117843  -3.93974018711986
H  4.98538960176419  -4.66772562114955  -2.73432455887615
C  -5.15319873075815  -1.38904185334803  -1.39027991393022
C  -4.31095076533303  -0.31108372619226  -1.18667258860785
C  -2.98284653974434  -0.57413591787678  -1.22691890652596
C  -2.66482673116600  -1.99967177274372  -1.34011771236021
C  -3.52554650839848  -2.96038851214896  -0.94354762269228
C  -4.83715275776933  -2.60286158294453  -0.94930241066131
H  -4.72883181496663  0.68889508609665  -1.29933728600505
H  -2.25404124406888  0.03002161161719  -0.64806659332766
C  1.46299104279938  -3.32597823852174  -1.47244349651154
C  3.02100406498921  -4.47798354796357  -3.02976009093562
C  1.55592193574254  -2.58178335646594  -0.30239566327576
C  2.73466547911879  -4.01885640395752  -1.75450674012513
C  2.85694472511079  -2.87716503013150  0.21878457540855
C  3.50644759922517  -3.82064039931569  -0.58096572342847
H  3.31508082393864  -2.39801319874520  1.09817011191095
Cl  -6.86606851186289  -1.15967029100926  -1.98864006620352
Cl  5.07898350122533  -4.18660445997372  -0.19457980308405
N  -1.45539805867618  -2.49184194031768  -1.59325657090836
C  -0.78410376915447  -3.27115024652432  -2.39343639219511
O  2.23323642423240  -4.47445823503361  -3.95239949144192
N  0.47564020436122  -3.49076643659396  -2.46231912447757
H  0.83650813388905  -3.89612543654995  -3.30309603972691
H  0.79354913398490  -1.86095720226917  -0.05914637303426
H  -3.18725356286676  -3.98477772757828  -0.90187022474128
Cl  -5.96848526916740  -3.86075790365924  -0.73988518079261

