%nproc=8
%mem=4000MB
#opt=(noeigen,calcfc,ts,recalc=5,maxcyc=200) freq B3LYP/SVP em=GD3BJ

ts-4248.gjf

0 2
O  4.12220600152714  -4.52980128267666  -3.75452477105272
Cl  -1.58764031178233  -4.14526283746830  -3.57777415070597
H  4.19853130124357  -5.46518928984344  -3.38258984200723
C  -5.65061387195277  -1.84413706964843  -0.95984013751385
C  -4.67722584436580  -0.82695755305331  -0.64044154738202
C  -3.28118030701929  -0.92015693054644  -0.78202993109309
C  -2.78358940477573  -2.20604847680420  -0.98408243375614
C  -3.72564172095898  -3.27471636428898  -1.29559560883943
C  -5.10822291612577  -3.13304218716452  -1.34366698271393
H  -5.08762940614565  0.11363021999497  -0.33501664321251
H  -2.72585031186096  -0.10956286385412  -0.33667212366403
C  1.47071343021214  -3.53743936026709  -1.52499420073019
C  2.89996144668594  -4.02130734787725  -3.37005520518223
C  1.58187908345186  -3.34951804107874  -0.06984282695581
C  2.71043526439299  -3.94784891900707  -1.98153743604387
C  2.90169642119065  -3.80225925422532  0.21500552951110
C  3.53070671911922  -4.33977738579311  -0.91792010845938
H  3.33506782653526  -3.86620610594470  1.22150487751653
Cl  -7.23384776808470  -1.52611029080913  -1.11764479181445
Cl  4.87376745514284  -5.59803481887386  -0.80538815242328
N  -1.48675556174813  -2.66555162315441  -1.16762611076881
C  -0.86668293839657  -3.45047080709930  -1.91153468167797
O  2.15860414150378  -3.30591132766250  -4.15685484727676
N  0.37973558372158  -3.66115605787137  -2.24389531052572
H  1.13908761562060  -3.36826155267425  -3.82650946105400
H  0.76801621557762  -3.38056215903410  0.64288875961580
H  -3.14557097010629  -4.04127070309065  -1.77566037184169
Cl  -6.13468387442144  -4.16848316678911  -2.23898680639682

