%nproc=8
%mem=4000MB
#opt=(noeigen,calcfc,ts,recalc=5,maxcyc=200) freq B3LYP/SVP em=GD3BJ

ts-4631.gjf

0 1
O  4.59697452354173  -2.53735992412200  -2.33546998131526
Cl  1.36552951325035  -5.29289227441407  -4.41805376271298
H  5.23246872486976  -1.85831220350693  -2.14874868210463
Cl  -0.87816032878001  -1.52953177356105  -0.24298692676490
C  -2.98070252135973  2.66010643524512  -2.08795535710453
C  -1.59806645240298  2.43365924761042  -2.22278856649523
C  -1.04301704218586  1.13886548716846  -2.30600713601832
C  -1.83612920934258  0.07079635083892  -2.62896030475518
C  -3.31699138093488  0.23973599400687  -2.78110020095654
C  -3.87355493937852  1.55243965674624  -2.55918555186778
H  -0.97397635634467  3.26493205381251  -1.82912177249453
H  0.05111744152507  1.11228608826621  -2.39312394991545
C  1.27894280634828  -3.48629294221073  -1.23725167281111
C  3.90556521257270  -2.87076151598955  -1.14169129638465
C  0.59784569943419  -4.26756919921362  -0.38865390947866
C  2.73899437094668  -3.81784509705613  -1.00303228389174
C  1.52456029934021  -5.35972791470407  0.05318905480160
C  2.85295362580911  -5.06924724100283  -0.43157051583959
H  1.50796216361556  -6.43842364257599  0.19036339626826
Cl  -3.43430687393344  4.00890645267538  -1.23834161714830
Cl  4.11066735364963  -6.11107332919735  -0.20366777242470
N  -1.15309608721902  -1.19163756489034  -2.88879850758977
C  -0.35357306034340  -1.66995411551743  -1.97436891863526
O  4.25769864191660  -2.49521408457886  -0.07898310752192
N  0.77744827862488  -2.48961683070132  -2.07624847546499
H  1.05944973476471  -2.54472972212536  -3.03829078008030
H  -0.44268577728145  -4.28314646030528  -0.44808860702918
H  -4.05369640546867  -0.54236768439357  -2.86368418393680
Cl  -5.60392511134176  1.70576968684219  -2.34680318433811

