%nproc=8
%mem=4000MB
#opt=(noeigen,calcfc,ts,recalc=5,maxcyc=200) freq B3LYP/SVP em=GD3BJ

ts-961.gjf

0 2
O  5.87190156027491  -3.24076767534769  -5.86804702557705
Cl  3.48145364654816  -2.46703648438101  -0.24951595827348
H  6.43893683789547  -2.71125329443462  -5.30843925323395
Cl  2.52021955935257  -3.59902508899484  -2.17772689998740

