%nproc=8
%mem=4000MB
#opt=(noeigen,calcfc,ts,recalc=5,maxcyc=200) freq B3LYP/SVP em=GD3BJ

ts-2504.gjf

0 2
O  -3.04680963208490  -0.39237337253383  6.95742683469507
C  -3.27077128091387  0.20713348833619  4.66844489131760
C  -2.67127348493027  1.11966848510184  3.75371645549556
C  -2.46553453152107  -0.71483005726271  5.78570934998376
C  -1.30532394328945  1.19183485285647  3.62129470566749
H  -3.34392926815135  1.66413326852242  3.07692779356466
C  -1.00040361500408  -0.33849304628557  5.55485189875222
C  -0.53160534541750  0.44512617346309  4.61676053866891
H  -0.78527602860646  1.84329414796587  2.93533982702103
H  -0.31653797369566  -0.84206818284906  6.31271730982615
Cl  1.26422846498797  0.55978983202877  4.43882866666360
N  -4.51041179151472  0.35054394616322  4.98457483114991
H  -5.10679958321081  1.06528904118353  4.46770555077000
H  -2.39240224726950  -1.78248293993127  5.59040183497250

