%nproc=8
%mem=4000MB
#opt=(noeigen,calcfc,ts,recalc=5,maxcyc=200) freq B3LYP/SVP em=GD3BJ

ts-2514.gjf

0 2
O  -2.81646445321598  0.13680973598615  7.11386951693166
C  -3.65454711766901  0.96033751062333  4.80403880378306
C  -2.74870255504219  1.37824737624081  3.79121882103887
C  -2.91112128595674  -0.22704434503856  5.71509957156602
C  -1.46620422279811  1.00571377783952  3.83053689545547
H  -3.13969038925573  2.16726681434034  3.14171399167508
C  -1.56381523237431  -0.92739043937934  5.39338556250413
C  -0.80112177728358  0.00257528726603  4.74187171119525
H  -0.77840101349356  1.47109283172024  3.11212457246725
H  -1.23943179600050  -1.82186818274368  5.81159246349792
Cl  0.96130399450299  0.02589689371346  4.68188009532793
N  -4.86376135222683  1.26577380716159  4.92037529653983
H  -5.25184344792844  1.94893144380733  4.21240787459685
H  -3.67929713851539  -0.94943438605115  5.32017065841155

