70
 energy: -143.142568062835 gnorm: 0.097087677434 xtb: 6.6.1 (8d0f1dd)
O     0.59555937    -2.90335253     3.39026595
H     0.52498961    -2.56617445     2.49546492
H     1.48665900    -2.98470510     3.73473930
O    -2.13917433     1.39918824     1.36487468
H    -2.10260132     1.61485500     2.29841046
H    -3.04766022     1.17362392     1.15723989
O    -2.18646405    -3.28626984    -0.04908665
H    -1.35767725    -2.80418983    -0.05615246
H    -2.01929032    -4.22269792    -0.16947670
O    -0.08725786    -1.06316229     1.11383985
H    -0.30227026    -0.13679439     1.23611481
H     0.82594141    -1.25307983     0.89172078
O    -3.11913666    -0.67592454     3.00327308
H    -3.58194703    -0.73027941     2.16530453
H    -2.43714382    -1.34896522     2.96805771
O     3.11404668    -1.57331458    -2.06985394
H     2.59497243    -0.76921060    -2.01226319
H     3.40665445    -1.55632526    -2.98277864
O     0.00829615    -1.75948699    -1.89288387
H     0.38314998    -1.57601798    -2.75611106
H    -0.61110177    -1.06336704    -1.66682676
O     0.21185240    -0.46523238     4.32133231
H    -0.41303746    -0.47520089     5.04848530
H     0.27613852    -1.38251979     4.04969355
O     0.83453685     1.01579064    -2.87134796
H     1.24616686     1.88092303    -2.83333135
H     0.09144646     1.07565676    -2.26837986
O    -1.75754783     0.39248307    -1.30136493
H    -2.50374812    -0.05375718    -1.70558406
H    -1.86626435     0.37870846    -0.34882660
O    -3.52156661    -1.15877520    -0.02462951
Cl    -5.20935405    -1.35389260     0.09564090
H    -3.17450031    -2.04693853    -0.17056547
O     0.61366010     2.12608906     3.31149497
Cl     0.92626563     3.16492807     4.62460424
H     0.51425003     1.23060034     3.65617552
O     2.41018901    -2.61049825     0.19772807
Cl     1.24081162    -3.82354910    -0.05172732
H     3.03915602    -2.71277307    -0.52651394
O    -3.36854567     1.56239172     4.90966920
Cl    -3.66012986     2.73488145     3.70908297
H    -3.19593164     0.77816200     4.37508878
C     4.99942712    -0.35709079     0.51506005
C     4.14259233    -0.31051505     1.60794034
C     3.14424509     0.63508317     1.74518353
C     2.96995082     1.54404362     0.69623013
C     3.93006591     1.61086513    -0.31303164
C     4.95866312     0.68094869    -0.41123879
H     4.28836772    -1.06584062     2.36890532
H     2.39025463     0.59951082     2.52379028
C    -0.85868135     3.96106547    -0.92473051
C    -0.51257323     4.43526110    -2.19249430
C    -2.20490406     3.80753176    -0.58126458
C    -1.53372785     4.66654705    -3.10541244
H     0.49741538     4.62886303    -2.51623380
C    -3.21311415     4.09678262    -1.48620026
C    -2.86470542     4.45906106    -2.77904524
H    -1.23242769     5.04861648    -4.07214732
H    -4.26132751     3.99332930    -1.23853680
Cl     6.09616558    -1.69895805     0.47304253
Cl    -4.08916692     4.88776014    -3.94503450
N     1.93864695     2.48420979     0.84467141
H     1.41367852     2.43370483     1.70351487
C     1.35430950     3.10471591    -0.24818540
O     1.95212132     3.18884712    -1.29450142
N     0.10968023     3.62924302     0.04168112
H    -0.30654536     3.37017670     0.92229959
H    -2.57135361     3.47152318     0.38322335
H     3.87167846     2.38009742    -1.06591777
Cl     5.89741309     0.92729097    -1.84769735
