%nproc=8
%mem=4000MB
#opt=(noeigen,calcfc,ts,recalc=5,maxcyc=200) freq B3LYP/SVP em=GD3BJ

ts-15.gjf

0 1
O  0.07608899520862  4.56433836518562  -1.79015031133050
Cl  -1.84317047379777  5.47358910861461  -1.98675678222632
H  0.01187654111593  4.14887824611710  -2.63982174654170
C  5.25800870321743  1.79282530416742  -1.48055448483311
C  4.49455032179196  2.58008630246486  -0.61327378470014
C  3.16078877628497  2.59406282678214  -0.85446120234439
C  2.48453287316072  1.71600159426923  -1.77183206705284
C  3.29085747487786  0.79036008818595  -2.45106052060682
C  4.62598615881158  0.81369422305375  -2.18410595939860
H  4.99419286881544  3.04618334158141  0.18633659304337
H  2.63895790541661  3.16625850501244  -0.08396337343277
C  -2.23088554191611  0.54373218189385  -2.45300186113750
C  -2.22892468476600  -0.51339260122922  -3.39788000217872
C  -3.43246490276124  1.11804752464531  -2.00604518864574
C  -3.43587861118667  -1.00466113403136  -3.79843331719697
H  -1.43428322362528  -1.20739674339216  -3.62494384008289
C  -4.64370831488479  0.60753252056817  -2.46961318997848
C  -4.65159353438571  -0.53670743687447  -3.29489701319775
H  -3.52622776656255  -1.91321396739328  -4.41569184520442
H  -5.56337394341094  0.95737295088435  -2.03824395262885
Cl  6.98016653643228  1.77879208003986  -1.36379087157189
Cl  -6.13876781454573  -1.28232167445491  -3.61851943649733
N  1.12620756388413  1.70727062822720  -1.77508146051940
H  0.67751941422623  2.39285651966427  -1.21135724875571
C  0.27885607896981  0.79849337037500  -2.30156348549066
O  0.60761789509463  -0.28504006390410  -2.67334790123127
N  -1.05467659415489  1.24862839182521  -2.13986695707053
H  -1.14640054204239  2.21924651558132  -1.78753389053425
H  -3.35888162043362  1.83312178366351  -1.20284352315733
H  2.76910825081623  0.00477062488987  -2.97198512626883
Cl  5.55749169307970  -0.58234543605810  -2.59779645270765

