%nproc=8
%mem=4000MB
#opt=(noeigen,calcfc,ts,recalc=5,maxcyc=200) freq B3LYP/SVP em=GD3BJ

ts-25.gjf

0 1
O  0.62755894252537  4.09831867847142  -3.28032109024330
Cl  -1.66360461737273  5.06395340538847  -1.80250318724462
H  1.38705525148444  4.57726953751637  -3.66076998367719
C  5.34803040408672  1.52120370842486  -1.37930673917514
C  4.48769970612037  1.92996126245630  -0.28086536884538
C  3.05990462796518  1.94253970601677  -0.43102910132442
C  2.49940924428576  1.67973445460125  -1.74002020905503
C  3.35427064607395  1.05610597186500  -2.61323673962571
C  4.69853662671776  0.73954417270313  -2.33078547481656
H  4.97144110070944  2.44379074077874  0.54176175321024
H  2.44201794559566  1.95782875392121  0.44188666459213
C  -2.23166716523408  0.72205438643489  -2.74388237155509
C  -2.32744059031512  -0.56298645085257  -3.26230398216301
C  -3.39329383242719  1.39465375255525  -2.54364669009634
C  -3.56469916269295  -1.12854942116207  -3.49061685456905
H  -1.38082926804476  -1.16325409824103  -3.41361959422562
C  -4.66233546736318  0.84431074499975  -2.71584203115377
C  -4.71091367985244  -0.44214620614497  -3.15435386161524
H  -3.77080484756284  -2.21817357567779  -3.69936449181787
H  -5.54240707589664  1.37333722643867  -2.37128020503355
Cl  7.00240791027831  1.86424962449807  -1.40539591092255
Cl  -6.27082817361310  -1.22967376229496  -3.47402162721608
N  1.20088804918347  1.99196257920622  -2.07615187388772
H  0.85533808609938  3.39968492776930  -2.44962050983414
C  0.26005155542846  1.06218709411328  -2.55074659958314
O  0.60666067843372  -0.09742406272075  -2.82721286232605
N  -1.02705099116169  1.43789489670844  -2.40634967552215
H  -1.08365443186140  2.29188391395111  -1.81074573612968
H  -3.26440259652103  2.39625926800609  -2.12548997665778
H  2.84065765214586  0.72492209247484  -3.56002218037773
Cl  5.59133148529155  -0.54195354879734  -3.18429904780787

