%nproc=8
%mem=4000MB
#opt=(noeigen,calcfc,ts,recalc=5,maxcyc=200) freq B3LYP/SVP em=GD3BJ

ts-35.gjf

0 1
O  1.38533590759283  3.60325226915291  -4.98538717652967
Cl  -1.47730637883974  4.61173772512101  -1.59329624148084
H  2.01871554045076  2.94319169782453  -5.21304977886594
C  5.16545095326418  1.34340078941079  -1.50042796800964
C  4.37521408823180  1.99924387033794  -0.53851371219775
C  3.00122504445703  1.90419864611709  -0.65567398383977
C  2.38397760110515  1.36360691564788  -1.82328887965222
C  3.19321614577183  0.77947546633048  -2.78962851385819
C  4.56827623801185  0.66157615842737  -2.57964432440153
H  4.77588342939510  2.32441768476898  0.45295892763834
H  2.41529164854940  2.48493561533673  0.06364276911543
C  -2.16852259145344  1.05179424970963  -2.91831201910640
C  -2.20587091081659  -0.35660707013776  -2.85437984655239
C  -3.38271991556081  1.78276834632677  -2.97160283050739
C  -3.44297097454853  -1.00878292243749  -2.96973343334336
H  -1.28509229439125  -0.82556500015206  -2.89450991141591
C  -4.58420323556783  1.12018282239803  -3.08373804752625
C  -4.65259842172567  -0.28889201956029  -3.12470235696788
H  -3.42460821475005  -2.03440673964197  -3.01658612739980
H  -5.48448291738897  1.69407624438637  -3.27918088478228
Cl  6.83474787970043  1.72876100585874  -1.28642787060119
Cl  -6.16678840417293  -1.03281245332473  -3.21891691467602
N  1.10520524341855  1.70967747443041  -1.91018653662965
H  1.05060415445492  3.38153869897647  -4.00371578267703
C  0.23332127744302  1.10028279429627  -2.72574778940727
O  0.51810536997595  -0.04451069067559  -3.18663728840216
N  -0.99599742911544  1.74717093608029  -2.83345863768840
H  -1.09578099781358  2.66301784543643  -2.39124170050364
H  -3.39109428986946  2.86657019407260  -3.00766163734614
H  2.81111753330826  0.45852444246674  -3.69919869140779
Cl  5.54661035750183  -0.06430524111506  -3.84046688348250

