%nproc=8
%mem=4000MB
#opt=(noeigen,calcfc,ts,recalc=5,maxcyc=200) freq B3LYP/SVP em=GD3BJ

ts-5.gjf

0 1
O  -0.70991009461484  4.55643353667355  -1.10990594024680
Cl  -1.76987295779919  5.67828716470423  -2.06159460200231
H  0.24648502627679  4.73074015650550  -1.17954560020194
C  5.22242829731332  1.85612175394425  -1.42638166669806
C  4.47926865528323  2.99560428889465  -1.16250882375020
C  3.13284745222718  2.88166168509255  -1.04525623957499
C  2.46060281062724  1.73763454239308  -1.57151116485352
C  3.24977885635458  0.70625091390966  -2.16537573736514
C  4.60190069341642  0.71457770363030  -1.91622344424251
H  4.89700764894319  3.90776015821053  -0.63311207795818
H  2.60694986884020  3.79777611468816  -0.79360667896138
C  -2.23668174313795  0.59867718226463  -2.48409215265844
C  -2.23799990468303  -0.40159159013121  -3.42664873558181
C  -3.39633280179566  1.01187860709480  -1.91519689788627
C  -3.40903779122809  -1.04023903332013  -3.77498718184569
H  -1.35421274672702  -0.82252944563009  -3.79251524269257
C  -4.58835800377388  0.39461524610996  -2.15002535642321
C  -4.59134294751277  -0.67987142938738  -3.08872538995369
H  -3.45498981710782  -1.77829228092845  -4.48730086782152
H  -5.40966917622182  0.84152659216026  -1.59709378079356
Cl  6.89347078734477  1.74166685475462  -1.26357837717153
Cl  -6.04115974302360  -1.27556134418802  -3.79195877930692
N  1.05247760602725  1.74223502162163  -1.68417488167318
H  0.53788439734690  2.64031089038852  -1.61328902483326
C  0.20889459649723  0.80031746942749  -2.20003779827361
O  0.56415108448556  -0.23866389364381  -2.71277288225470
N  -1.12833512868314  1.17724162528511  -1.93931783354903
H  -1.41268839112089  1.94203937658500  -1.29202088460343
H  -3.32994011536068  1.79206245212885  -1.16277448745656
H  2.75448383760480  -0.08793543455635  -2.62704595848173
Cl  5.56083099557420  -0.66069047259640  -2.41872086451839

