%nproc=8
%mem=4000MB
#opt=(noeigen,calcfc,ts,recalc=5,maxcyc=200) freq B3LYP/SVP em=GD3BJ

ts-55.gjf

0 1
O  2.78595080816143  2.51020179309199  -7.94386886633085
Cl  -1.12548168009855  4.04764545151190  -1.18563160147569
H  1.92189215095299  2.75244945230092  -7.55332136486204
C  5.04779546296640  1.48921884667189  -1.78706236910422
C  4.26200160060037  2.12097946215380  -0.79866127883521
C  2.89759269136519  2.12917331171555  -0.89053618477963
C  2.24992200395449  1.45152322812876  -1.96152263891770
C  3.02610480107654  1.15737530993574  -3.10681469232576
C  4.40971855143029  1.15593484279034  -3.04093036989521
H  4.78356710793972  2.79160579064503  -0.08256417524714
H  2.15490612059069  2.51895880404981  -0.24098535998127
C  -2.17002871499180  1.20790044848300  -3.34205924918163
C  -2.34065317376731  -0.15967136463569  -3.16184587464664
C  -3.31008143945773  1.99673438818399  -3.61178870041282
C  -3.61065749323759  -0.65945687517968  -2.85973373438177
H  -1.44886308526509  -0.86965129777434  -3.19787662892855
C  -4.57627514643305  1.44934058118450  -3.53007851376095
C  -4.70985288181911  0.14070696450625  -3.06885555298508
H  -3.69915195491736  -1.68344602044823  -2.52484079749067
H  -5.51299134170493  1.94488855354999  -3.74996658687907
Cl  6.68787032291806  1.08965592076346  -1.49876212447128
Cl  -6.32905049934428  -0.51419882572738  -2.84499822768765
N  0.91104050608122  1.30989089674906  -2.03928433217994
H  3.43212318635606  2.45773817880854  -7.14763176420315
C  0.26650347204338  1.00981058775180  -3.22263179703340
O  0.57513396694946  0.15895739955610  -4.09207550395334
N  -0.91217653528533  1.75782515177948  -3.36445571543104
H  -0.77917313273536  2.73829236279674  -3.03862500327508
H  -3.23847038846579  3.03832162747477  -3.93885371757046
H  2.50964146159440  0.79039212688841  -4.02526726647761
Cl  5.47654119517022  0.95063491685242  -4.40317609587426

